version 2
run General-0-20210517-18:15:22-2128
attr configname General
attr datetime 20210517-18:15:22
attr experiment General
attr inifile Final_Project1.ini
attr iterationvars ""
attr iterationvarsf ""
attr measurement ""
attr network Network1
attr processid 2128
attr repetition 0
attr replication #0
attr resultdir results
attr runnumber 0
attr seedset 245
param **.SourceA.interArrivalTime exponential(163.9s)
param **.SourceB.interArrivalTime exponential(159.7s)
param **.SourceC.interArrivalTime exponential(555.6s)
param **.SourceA.startTime 0s
param **.SourceA.stopTime 201599s
param **.SourceB.startTime 201600s
param **.SourceB.stopTime 604799s
param **.SourceC.startTime 604800s
param **.SourceC.stopTime 1353599s
param **.server.serviceTime 1500s
param **.SourceA.jobType 0
param **.SourceB.jobType 1
param **.SourceC.jobType 2

statistic Network1.final_Project_1_SinkA "End-to-End Delay"
field count 0
field mean nan
field stddev nan
field min nan
field max nan
field sum 0
field sqrsum 0
statistic Network1.final_Project_1_SinkA "End-to-End Delay"
field count 1
field mean 1500
field stddev nan
field min 1500
field max 1500
field sum 1500
field sqrsum 2250000
statistic Network1.final_Project_1_SinkA "End-to-End Delay"
field count 2
field mean 2183.6581620874
field stddev 966.83864485104
field min 1500
field max 2867.3163241748
field sum 4367.3163241748
field sqrsum 10471502.902879
statistic Network1.final_Project_1_SinkA "End-to-End Delay"
field count 3
field mean 2891.7274418465
field stddev 1404.0921612931
field min 1500
field max 4307.8660013648
field sum 8675.1823255396
field sqrsum 29029212.388594
statistic Network1.final_Project_1_SinkA "End-to-End Delay"
field count 4
field mean 3616.6299016918
field stddev 1848.310265286
field min 1500
field max 5791.3372812274
field sum 14466.519606767
field sqrsum 62568799.893529
statistic Network1.final_Project_1_SinkA "End-to-End Delay"
field count 5
field mean 4279.7515905037
field stddev 2181.9349207607
field min 1500
field max 6932.2383457513
field sum 21398.757952518
field sqrsum 110624728.37583
statistic Network1.final_Project_1_SinkA "End-to-End Delay"
field count 6
field mean 4962.7729346484
field stddev 2570.5604326862
field min 1500
field max 8377.879655372
field sum 29776.63760789
field sqrsum 180813595.89573
statistic Network1.final_Project_1_SinkA "End-to-End Delay"
field count 7
field mean 5603.7698874229
field stddev 2895.2761127983
field min 1500
field max 9449.7516040702
field sum 39226.389211961
field sqrsum 270111401.27436
statistic Network1.final_Project_1_SinkA "End-to-End Delay"
field count 8
field mean 6268.5639329012
field stddev 3274.250306747
field min 1500
field max 10922.122251249
field sum 50148.51146321
field sqrsum 389404155.74559
statistic Network1.final_Project_1_SinkA "End-to-End Delay"
field count 9
field mean 6921.2460356692
field stddev 3635.1851442247
field min 1500
field max 12142.702857813
field sum 62291.214321023
field sqrsum 536849388.43874
statistic Network1.final_Project_1_SinkA "End-to-End Delay"
field count 10
field mean 7577.6705707018
field stddev 4006.8961883743
field min 1500
field max 13485.491385995
field sum 75776.705707018
field sqrsum 718707866.36047
statistic Network1.final_Project_1_SinkA "End-to-End Delay"
field count 11
field mean 8246.5246385195
field stddev 4401.2178726311
field min 1500
field max 14935.065316697
field sum 90711.771023715
field sqrsum 941764042.37448
statistic Network1.final_Project_1_SinkA "End-to-End Delay"
field count 12
field mean 8903.2817243552
field stddev 4773.4372067693
field min 1500
field max 16127.609668547
field sum 106839.38069226
field sqrsum 1201863835.9955
statistic Network1.final_Project_1_SinkA "End-to-End Delay"
field count 13
field mean 9563.5914272162
field stddev 5153.1553393098
field min 1500
field max 17487.307861549
field sum 124326.68855381
field sqrsum 1507669772.2401
statistic Network1.final_Project_1_SinkA "End-to-End Delay"
field count 14
field mean 10219.89296948
field stddev 5526.5324462253
field min 1500
field max 18751.813018904
field sum 143078.50157271
field sqrsum 1859300263.736
statistic Network1.final_Project_1_SinkA "End-to-End Delay"
field count 15
field mean 10867.560684342
field stddev 5886.6842467504
field min 1500
field max 19934.908692417
field sum 163013.41026513
field sqrsum 2256700848.311
statistic Network1.final_Project_1_SinkA "End-to-End Delay"
field count 16
field mean 11522.223595788
field stddev 6261.0050658696
field min 1500
field max 21342.167267478
field sum 184355.57753261
field sqrsum 2712188951.9841
statistic Network1.final_Project_1_SinkA "End-to-End Delay"
field count 17
field mean 12187.597535928
field stddev 6654.0555356382
field min 1500
field max 22833.580578164
field sum 207189.15811077
field sqrsum 3233561354.0036
statistic Network1.final_Project_1_SinkA "End-to-End Delay"
field count 18
field mean 12860.34148738
field stddev 7058.2205512503
field min 1500
field max 24296.988662063
field sum 231486.14677284
field sqrsum 3823905012.048
statistic Network1.final_Project_1_SinkA "End-to-End Delay"
field count 19
field mean 13528.106570399
field stddev 7451.3809511971
field min 1500
field max 25547.87806474
field sum 257034.02483758
field sqrsum 4476599085.6588
statistic Network1.final_Project_1_SinkA "End-to-End Delay"
field count 20
field mean 14203.156373385
field stddev 7855.8675868893
field min 1500
field max 27029.102630124
field sum 284063.1274677
field sqrsum 5207171474.6486
statistic Network1.final_Project_1_SinkA "End-to-End Delay"
field count 21
field mean 14879.995526769
field stddev 8261.3109611144
field min 1500
field max 28416.778594451
field sum 312479.90606215
field sqrsum 6014684780.3347
statistic Network1.final_Project_1_SinkA "End-to-End Delay"
field count 22
field mean 15539.758962091
field stddev 8635.7180063141
field min 1500
field max 29394.791103852
field sum 341874.697166
field sqrsum 6878738524.3738
statistic Network1.final_Project_1_SinkA "End-to-End Delay"
field count 23
field mean 16207.328026575
field stddev 9024.175242696
field min 1500
field max 30893.84744523
field sum 372768.54461124
field sqrsum 7833168334.3429
statistic Network1.final_Project_1_SinkA "End-to-End Delay"
field count 24
field mean 16879.84791222
field stddev 9420.7136902081
field min 1500
field max 32347.805282056
field sum 405116.34989329
field sqrsum 8879548840.9088
statistic Network1.final_Project_1_SinkA "End-to-End Delay"
field count 25
field mean 17549.914408833
field stddev 9812.0672598533
field min 1500
field max 33631.510327521
field sum 438747.86022081
field sqrsum 10010627327.819
statistic Network1.final_Project_1_SinkA "End-to-End Delay"
field count 26
field mean 18223.977084829
field stddev 10209.748778784
field min 1500
field max 35075.543984746
field sum 473823.40420556
field sqrsum 11240921113.645
statistic Network1.final_Project_1_SinkA "End-to-End Delay"
field count 27
field mean 18901.948668662
field stddev 10613.209063063
field min 1500
field max 36529.209848318
field sum 510352.61405388
field sqrsum 12575304285.787
statistic Network1.final_Project_1_SinkA "End-to-End Delay"
field count 28
field mean 19582.99005092
field stddev 11020.672997314
field min 1500
field max 37971.107371895
field sum 548323.72142577
field sqrsum 14017109280.835
statistic Network1.final_Project_1_SinkA "End-to-End Delay"
field count 29
field mean 20258.594345811
field stddev 11417.282520138
field min 1500
field max 39175.514602757
field sum 587499.23602853
field sqrsum 15551830225.226
statistic Network1.final_Project_1_SinkA "End-to-End Delay"
field count 30
field mean 20930.621185387
field stddev 11807.115019833
field min 1500
field max 40419.399533073
field sum 627918.6355616
field sqrsum 17185558083.84
statistic Network1.final_Project_1_SinkA "End-to-End Delay"
field count 31
field mean 21604.576942144
field stddev 12200.071317246
field min 1500
field max 41823.24964486
field sum 669741.88520646
field sqrsum 18934742294.696
statistic Network1.final_Project_1_SinkA "End-to-End Delay"
field count 32
field mean 22281.113593257
field stddev 12597.096990147
field min 1500
field max 43253.749777774
field sum 712995.63498424
field sqrsum 20805629164.535
statistic Network1.final_Project_1_SinkA "End-to-End Delay"
field count 33
field mean 22961.008987692
field stddev 12999.32283234
field min 1500
field max 44717.661609602
field sum 757713.29659384
field sqrsum 22805298424.366
statistic Network1.final_Project_1_SinkA "End-to-End Delay"
field count 34
field mean 23640.594018433
field stddev 13400.154221746
field min 1500
field max 46066.900032897
field sum 803780.19662673
field sqrsum 24927457703.007
statistic Network1.final_Project_1_SinkA "End-to-End Delay"
field count 35
field mean 24322.007718961
field stddev 13803.412521062
field min 1500
field max 47490.073536899
field sum 851270.27016363
field sqrsum 27182764787.547
statistic Network1.final_Project_1_SinkA "End-to-End Delay"
field count 36
field mean 24988.035099511
field stddev 14179.551896983
field min 1500
field max 48298.993418753
field sum 899569.26358238
field sqrsum 29515557552.811
statistic Network1.final_Project_1_SinkA "End-to-End Delay"
field count 37
field mean 25653.921079879
field stddev 14556.120832568
field min 1500
field max 49625.81637314
field sum 949195.07995553
field sqrsum 31978279203.512
statistic Network1.final_Project_1_SinkA "End-to-End Delay"
field count 38
field mean 26321.992516047
field stddev 14937.010691693
field min 1500
field max 51040.635654256
field sum 1000235.7156098
field sqrsum 34583425691.502
statistic Network1.final_Project_1_SinkA "End-to-End Delay"
field count 39
field mean 26989.097362637
field stddev 15316.624495593
field min 1500
field max 52339.081533078
field sum 1052574.7971429
field sqrsum 37322805147.229
statistic Network1.final_Project_1_SinkA "End-to-End Delay"
field count 40
field mean 27650.523253146
field stddev 15687.032723577
field min 1500
field max 53446.13298299
field sum 1106020.9301258
field sqrsum 40179294278.064
statistic Network1.final_Project_1_SinkA "End-to-End Delay"
field count 41
field mean 28314.324170667
field stddev 16062.279376258
field min 1500
field max 54866.360871489
field sum 1160887.2909973
field sqrsum 43189611833.344
statistic Network1.final_Project_1_SinkA "End-to-End Delay"
field count 42
field mean 28964.048143499
field stddev 16414.449291463
field min 1500
field max 55602.73102962
field sum 1216490.022027
field sqrsum 46281275531.297
statistic Network1.final_Project_1_SinkA "End-to-End Delay"
field count 43
field mean 29613.012452502
field stddev 16766.892909424
field min 1500
field max 56869.513430625
field sum 1273359.5354576
field sqrsum 49515417089.133
statistic Network1.final_Project_1_SinkA "End-to-End Delay"
field count 44
field mean 30265.885989266
field stddev 17127.33343993
field min 1500
field max 58339.448070137
field sum 1331698.9835277
field sqrsum 52918908290.261
statistic Network1.final_Project_1_SinkA "End-to-End Delay"
field count 45
field mean 30921.332186293
field stddev 17493.171344866
field min 1500
field max 59760.964855452
field sum 1391459.9483832
field sqrsum 56490281210.716
statistic Network1.final_Project_1_SinkA "End-to-End Delay"
field count 46
field mean 31579.267922121
field stddev 17864.021164883
field min 1500
field max 61186.376034406
field sum 1452646.3244176
field sqrsum 60234053822.939
statistic Network1.final_Project_1_SinkA "End-to-End Delay"
field count 47
field mean 32240.21739925
field stddev 18240.557505389
field min 1500
field max 62643.89334719
field sum 1515290.2177648
field sqrsum 64158311196.633
statistic Network1.final_Project_1_SinkA "End-to-End Delay"
field count 48
field mean 32898.154483197
field stddev 18612.284409766
field min 1500
field max 63821.197428687
field sum 1579111.4151935
field sqrsum 68231456437.865
statistic Network1.final_Project_1_SinkA "End-to-End Delay"
field count 49
field mean 33557.40926076
field stddev 18986.740995067
field min 1500
field max 65201.638583767
field sum 1644313.0537772
field sqrsum 72482710111.873
statistic Network1.final_Project_1_SinkA "End-to-End Delay"
field count 50
field mean 34218.842419972
field stddev 19365.277090352
field min 1500
field max 66629.067221375
field sum 1710942.1209986
field sqrsum 76922142710.664
statistic Network1.final_Project_1_SinkA "End-to-End Delay"
field count 51
field mean 34883.157475606
field stddev 19748.942169156
field min 1500
field max 68098.910257325
field sum 1779041.0312559
field sqrsum 81559604288.899
statistic Network1.final_Project_1_SinkA "End-to-End Delay"
field count 52
field mean 35550.033126787
field stddev 20137.002128929
field min 1500
field max 69560.691336995
field sum 1848601.7225929
field sqrsum 86398294068.179
statistic Network1.final_Project_1_SinkA "End-to-End Delay"
field count 53
field mean 36219.427901998
field stddev 20529.236132669
field min 1500
field max 71027.956212964
field sum 1919629.6788059
field sqrsum 91443264631.97
statistic Network1.final_Project_1_SinkA "End-to-End Delay"
field count 54
field mean 36891.585605622
field stddev 20925.932260972
field min 1500
field max 72515.943897716
field sum 1992145.6227036
field sqrsum 96701826751.347
statistic Network1.final_Project_1_SinkA "End-to-End Delay"
field count 55
field mean 37566.570353613
field stddev 21327.065515995
field min 1500
field max 74015.746745122
field sum 2066161.3694487
field sqrsum 102180157517.58
statistic Network1.final_Project_1_SinkA "End-to-End Delay"
field count 56
field mean 38243.032429314
field stddev 21730.151639452
field min 1500
field max 75448.446592871
field sum 2141609.8160416
field sqrsum 107872625610.86
statistic Network1.final_Project_1_SinkA "End-to-End Delay"
field count 57
field mean 38913.452679781
field stddev 22122.087725081
field min 1500
field max 76456.986705953
field sum 2218066.8027475
field sqrsum 113718296427.02
statistic Network1.final_Project_1_SinkA "End-to-End Delay"
field count 58
field mean 39584.818294292
field stddev 22515.40531093
field min 1500
field max 77852.658321372
field sum 2295919.4610689
field sqrsum 119779332834.72
statistic Network1.final_Project_1_SinkA "End-to-End Delay"
field count 59
field mean 40256.523554588
field stddev 22909.019206357
field min 1500
field max 79215.428651749
field sum 2375134.8897207
field sqrsum 126054416971.2
statistic Network1.final_Project_1_SinkA "End-to-End Delay"
field count 60
field mean 40926.667326845
field stddev 23299.644068385
field min 1500
field max 80465.149890019
field sum 2455600.0396107
field sqrsum 132529057318.02
statistic Network1.final_Project_1_SinkA "End-to-End Delay"
field count 61
field mean 41597.475765555
field stddev 23691.233508052
field min 1500
field max 81845.982088193
field sum 2537446.0216989
field sqrsum 139227822102.01
statistic Network1.final_Project_1_SinkA "End-to-End Delay"
field count 62
field mean 42268.161168894
field stddev 24082.402195737
field min 1500
field max 83179.970772555
field sum 2620625.9924714
field sqrsum 146146729639.73
statistic Network1.final_Project_1_SinkA "End-to-End Delay"
field count 63
field mean 42939.531940138
field stddev 24474.566534598
field min 1500
field max 84564.519757257
field sum 2705190.5122287
field sqrsum 153297887641.5
statistic Network1.final_Project_1_SinkA "End-to-End Delay"
field count 64
field mean 43612.524331334
field stddev 24869.322490695
field min 1500
field max 86011.044976715
field sum 2791201.5572054
field sqrsum 160695787499.49
statistic Network1.final_Project_1_SinkA "End-to-End Delay"
field count 65
field mean 44282.731636597
field stddev 25258.977814037
field min 1500
field max 87175.999173372
field sum 2878377.5563788
field sqrsum 168295442331.37
statistic Network1.final_Project_1_SinkA "End-to-End Delay"
field count 66
field mean 44955.323323921
field stddev 25652.629147742
field min 1500
field max 88673.783000004
field sum 2967051.3393788
field sqrsum 176158482122.9
statistic Network1.final_Project_1_SinkA "End-to-End Delay"
field count 67
field mean 45629.931415551
field stddev 26049.534601857
field min 1500
field max 90154.065463138
field sum 3057205.4048419
field sqrsum 184286237642.43
statistic Network1.final_Project_1_SinkA "End-to-End Delay"
field count 68
field mean 46306.708379723
field stddev 26449.878248771
field min 1500
field max 91650.764979257
field sum 3148856.1698212
field sqrsum 192686100363.71
statistic Network1.final_Project_1_SinkA "End-to-End Delay"
field count 69
field mean 46984.589127749
field stddev 26851.721012267
field min 1500
field max 93080.479993538
field sum 3241936.6498147
field sqrsum 201350076119.54
statistic Network1.final_Project_1_SinkA "End-to-End Delay"
field count 70
field mean 47659.683741853
field stddev 27248.26822693
field min 1500
field max 94241.212115027
field sum 3336177.8619297
field sqrsum 210231482180.45
statistic Network1.final_Project_1_SinkA "End-to-End Delay"
field count 71
field mean 48336.868471316
field stddev 27648.156432639
field min 1500
field max 95739.799533714
field sum 3431917.6614635
field sqrsum 219397591395.21
statistic Network1.final_Project_1_SinkA "End-to-End Delay"
field count 72
field mean 49015.67060908
field stddev 28050.484418039
field min 1500
field max 97210.622390282
field sum 3529128.2838537
field sqrsum 228847496500.71
statistic Network1.final_Project_1_SinkA "End-to-End Delay"
field count 73
field mean 49691.168317931
field stddev 28446.637383553
field min 1500
field max 98327.003355188
field sum 3627455.2872089
field sqrsum 238515696089.52
statistic Network1.final_Project_1_SinkA "End-to-End Delay"
field count 74
field mean 50365.794511981
field stddev 28841.029990641
field min 1500
field max 99613.506677675
field sum 3727068.7938866
field sqrsum 248438546802.15
statistic Network1.final_Project_1_SinkA "End-to-End Delay"
field count 75
field mean 51042.142272853
field stddev 29238.209156651
field min 1500
field max 101091.87657737
field sum 3828160.670464
field sqrsum 258658114312.08
statistic Network1.final_Project_1_SinkA "End-to-End Delay"
field count 76
field mean 51715.180863721
field stddev 29629.396239156
field min 1500
field max 102193.07517884
field sum 3930353.7456428
field sqrsum 269101538926.59
statistic Network1.final_Project_1_SinkA "End-to-End Delay"
field count 77
field mean 52375.130905629
field stddev 29998.098496447
field min 1500
field max 102531.3340906
field sum 4032885.0797334
field sqrsum 279614213396.99
statistic Network1.final_Project_1_SinkA "End-to-End Delay"
field count 78
field mean 53024.216381725
field stddev 30348.993654982
field min 1500
field max 103003.79804115
field sum 4135888.8777746
field sqrsum 290223995807.89
statistic Network1.final_Project_1_SinkA "End-to-End Delay"
field count 79
field mean 53668.009997159
field stddev 30691.95470318
field min 1500
field max 103883.912001
field sum 4239772.7897756
field sqrsum 301015862980.52
statistic Network1.final_Project_1_SinkA "End-to-End Delay"
field count 80
field mean 54312.061629307
field stddev 31036.370323137
field min 1500
field max 105192.14056901
field sum 4344964.9303446
field sqrsum 312081249418.01
statistic Network1.final_Project_1_SinkA "End-to-End Delay"
field count 81
field mean 54957.74771393
field stddev 31384.475962
field min 1500
field max 106612.63448375
field sum 4451577.5648283
field sqrsum 323447503249.57
statistic Network1.final_Project_1_SinkA "End-to-End Delay"
field count 82
field mean 55604.561252111
field stddev 31735.330066603
field min 1500
field max 107996.45784478
field sum 4559574.0226731
field sqrsum 335110738156.59
statistic Network1.final_Project_1_SinkA "End-to-End Delay"
field count 83
field mean 56250.97066322
field stddev 32086.29352956
field min 1500
field max 109256.5423742
field sum 4668830.5650473
field sqrsum 347047730208.16
statistic Network1.final_Project_1_SinkA "End-to-End Delay"
field count 84
field mean 56893.608873765
field stddev 32431.726731882
field min 1500
field max 110232.58034897
field sum 4779063.1453963
field sqrsum 359198951978.55
statistic Network1.final_Project_1_SinkA "End-to-End Delay"
field count 85
field mean 57537.888986393
field stddev 32780.764214148
field min 1500
field max 111657.41844715
field sum 4890720.5638434
field sqrsum 371666331072.83
statistic Network1.final_Project_1_SinkA "End-to-End Delay"
field count 86
field mean 58184.119644554
field stddev 33133.837868555
field min 1500
field max 113113.72558826
field sum 5003834.2894317
field sqrsum 384461045989.29
statistic Network1.final_Project_1_SinkA "End-to-End Delay"
field count 87
field mean 58827.265259543
field stddev 33482.411153833
field min 1500
field max 114137.78814859
field sum 5117972.0775803
field sqrsum 397488480672.74
statistic Network1.final_Project_1_SinkA "End-to-End Delay"
field count 88
field mean 59470.519969407
field stddev 33831.912685797
field min 1500
field max 115433.67972758
field sum 5233405.7573078
field sqrsum 410813415088.19
statistic Network1.final_Project_1_SinkA "End-to-End Delay"
field count 89
field mean 60114.853859099
field stddev 34183.933438082
field min 1500
field max 116816.23615199
field sum 5350221.9934598
field sqrsum 424459448116.91
statistic Network1.final_Project_1_SinkA "End-to-End Delay"
field count 90
field mean 60759.841295587
field stddev 34537.695625244
field min 1500
field max 118163.72314295
field sum 5468385.7166028
field sqrsum 438422113583.91
statistic Network1.final_Project_1_SinkA "End-to-End Delay"
field count 91
field mean 61406.833503766
field stddev 34895.429569238
field min 1500
field max 119636.13223991
field sum 5588021.8488427
field sqrsum 452734917721.24
statistic Network1.final_Project_1_SinkA "End-to-End Delay"
field count 92
field mean 62056.046723131
field stddev 35257.421104991
field min 1500
field max 121134.44968534
field sum 5709156.298528
field sqrsum 467408472621.81
statistic Network1.final_Project_1_SinkA "End-to-End Delay"
field count 93
field mean 62707.064841376
field stddev 35622.88068527
field min 1500
field max 122600.73171994
field sum 5831757.030248
field sqrsum 482439412040.08
statistic Network1.final_Project_1_SinkA "End-to-End Delay"
field count 94
field mean 63360.070328459
field stddev 35992.050485755
field min 1500
field max 124089.58062713
field sum 5955846.6108751
field sqrsum 497837636060.29
statistic Network1.final_Project_1_SinkA "End-to-End Delay"
field count 95
field mean 64010.377469953
field stddev 36356.869961266
field min 1500
field max 125139.24877039
field sum 6080985.8596455
field sqrsum 513497467643.11
statistic Network1.final_Project_1_SinkA "End-to-End Delay"
field count 96
field mean 64660.996978619
field stddev 36722.546605405
field min 1500
field max 126469.85030195
field sum 6207455.7099475
field sqrsum 529492090678.51
statistic Network1.final_Project_1_SinkA "End-to-End Delay"
field count 97
field mean 65313.498802206
field stddev 37091.73314978
field min 1500
field max 127953.67386651
field sum 6335409.383814
field sqrsum 545864233334.45
statistic Network1.final_Project_1_SinkA "End-to-End Delay"
field count 98
field mean 65966.092445443
field stddev 37461.303856683
field min 1500
field max 129267.67583943
field sum 6464677.0596534
field sqrsum 562574365351.38
statistic Network1.final_Project_1_SinkA "End-to-End Delay"
field count 99
field mean 66620.079621425
field stddev 37833.472208764
field min 1500
field max 130710.82286771
field sum 6595387.8825211
field sqrsum 579659684566.13
statistic Network1.final_Project_1_SinkA "End-to-End Delay"
field count 100
field mean 67275.433498517
field stddev 38208.142988211
field min 1500
field max 132155.46733056
field sum 6727543.3498517
field sqrsum 597124752111.49
statistic Network1.final_Project_1_SinkA "End-to-End Delay"
field count 101
field mean 67932.615588801
field stddev 38586.063377603
field min 1500
field max 133650.82461724
field sum 6861194.1744689
field sqrsum 614987295032.36
statistic Network1.final_Project_1_SinkA "End-to-End Delay"
field count 102
field mean 68589.630658322
field stddev 38963.740530875
field min 1500
field max 134948.15267993
field sum 6996142.3271489
field sqrsum 633198298944.09
statistic Network1.final_Project_1_SinkA "End-to-End Delay"
field count 103
field mean 69248.354230494
field stddev 39344.408129722
field min 1500
field max 136438.15859199
field sum 7132580.4857409
field sqrsum 651813670064.06
statistic Network1.final_Project_1_SinkA "End-to-End Delay"
field count 104
field mean 69908.731918614
field stddev 39727.921655971
field min 1500
field max 137927.63379496
field sum 7270508.1195358
field sqrsum 670837702228.33
statistic Network1.final_Project_1_SinkA "End-to-End Delay"
field count 105
field mean 70566.436379526
field stddev 40106.758963268
field min 1500
field max 138967.70031444
field sum 7409475.8198503
field sqrsum 690149723959.02
statistic Network1.final_Project_1_SinkA "End-to-End Delay"
field count 106
field mean 71221.851200735
field stddev 40481.685252752
field min 1500
field max 140040.40742768
field sum 7549516.2272779
field sqrsum 709761039671.53
statistic Network1.final_Project_1_SinkA "End-to-End Delay"
field count 107
field mean 71878.830948273
field stddev 40859.397596567
field min 1500
field max 141518.68418732
field sum 7691034.9114652
field sqrsum 729788577645.64
statistic Network1.final_Project_1_SinkA "End-to-End Delay"
field count 108
field mean 72536.188669701
field stddev 41237.804609135
field min 1500
field max 142873.46486244
field sum 7833908.3763277
field sqrsum 750201404607.44
statistic Network1.final_Project_1_SinkA "End-to-End Delay"
field count 109
field mean 73194.128819701
field stddev 41617.245541499
field min 1500
field max 144251.66501977
field sum 7978160.0413475
field sqrsum 771009947468.41
statistic Network1.final_Project_1_SinkA "End-to-End Delay"
field count 110
field mean 73852.436753888
field stddev 41997.331937867
field min 1500
field max 145608.00158025
field sum 8123768.0429277
field sqrsum 792211637592.61
statistic Network1.final_Project_1_SinkA "End-to-End Delay"
field count 111
field mean 74508.815564006
field stddev 42374.09636123
field min 1500
field max 146710.48467694
field sum 8270478.5276047
field sqrsum 813735603906.75
statistic Network1.final_Project_1_SinkA "End-to-End Delay"
field count 112
field mean 75165.342543956
field stddev 42751.174129389
field min 1500
field max 148039.83731842
field sum 8418518.3649231
field sqrsum 835651397340.02
statistic Network1.final_Project_1_SinkA "End-to-End Delay"
field count 113
field mean 75822.692452038
field stddev 43129.720340766
field min 1500
field max 149445.88215725
field sum 8567964.2470803
field sqrsum 857985469033.78
statistic Network1.final_Project_1_SinkA "End-to-End Delay"
field count 114
field mean 76480.075595532
field stddev 43508.349391609
field min 1500
field max 150764.37081033
field sum 8718728.6178907
field sqrsum 880715364539.61
statistic Network1.final_Project_1_SinkA "End-to-End Delay"
field count 115
field mean 77137.401485238
field stddev 43886.903541525
field min 1500
field max 152072.55291171
field sum 8870801.1708024
field sqrsum 903841425888.7
statistic Network1.final_Project_1_SinkA "End-to-End Delay"
field count 116
field mean 77796.061159284
field stddev 44267.782073284
field min 1500
field max 153541.92367458
field sum 9024343.0944769
field sqrsum 927416548214.39
statistic Network1.final_Project_1_SinkA "End-to-End Delay"
field count 117
field mean 78454.097298468
field stddev 44647.569518437
field min 1500
field max 154786.28944379
field sum 9179129.3839207
field sqrsum 951375343614.16
statistic Network1.final_Project_1_SinkA "End-to-End Delay"
field count 118
field mean 79113.536675911
field stddev 45029.782643087
field min 1500
field max 156267.94383677
field sum 9335397.3277575
field sqrsum 975795013885.13
statistic Network1.final_Project_1_SinkA "End-to-End Delay"
field count 119
field mean 79773.69957222
field stddev 45413.209265061
field min 1500
field max 157672.92133667
field sum 9493070.2490942
field sqrsum 1000655764008
statistic Network1.final_Project_1_SinkA "End-to-End Delay"
field count 120
field mean 80433.154607317
field stddev 45795.354963277
field min 1500
field max 158908.30378383
field sum 9651978.552878
field sqrsum 1025907613019.4
statistic Network1.final_Project_1_SinkA "End-to-End Delay"
field count 121
field mean 81093.901068371
field stddev 46179.699442417
field min 1500
field max 160383.47639485
field sum 9812362.0292729
field sqrsum 1051630472519.9
statistic Network1.final_Project_1_SinkA "End-to-End Delay"
field count 122
field mean 81756.087292703
field stddev 46566.468538047
field min 1500
field max 161880.62043693
field sum 9974242.6497098
field sqrsum 1077835807793
statistic Network1.final_Project_1_SinkA "End-to-End Delay"
field count 123
field mean 82419.587773547
field stddev 46955.410463861
field min 1500
field max 163366.64643647
field sum 10137609.296146
field sqrsum 1104524468960.9
statistic Network1.final_Project_1_SinkA "End-to-End Delay"
field count 124
field mean 83084.442143895
field stddev 47346.564479542
field min 1500
field max 164861.52969671
field sum 10302470.825843
field sqrsum 1131703792934.8
statistic Network1.final_Project_1_SinkA "End-to-End Delay"
field count 125
field mean 83750.025820592
field stddev 47738.811976036
field min 1500
field max 166282.40173109
field sum 10468753.227574
field sqrsum 1159353630060.3
statistic Network1.final_Project_1_SinkA "End-to-End Delay"
field count 126
field mean 84415.154434978
field stddev 48130.075013606
field min 1500
field max 167556.23123322
field sum 10636309.458807
field sqrsum 1187428720685.4
statistic Network1.final_Project_1_SinkA "End-to-End Delay"
field count 127
field mean 85081.197938535
field stddev 48522.758979178
field min 1500
field max 169002.67938661
field sum 10805312.138194
field sqrsum 1215990626325.2
statistic Network1.final_Project_1_SinkA "End-to-End Delay"
field count 128
field mean 85746.44492185
field stddev 48913.862582452
field min 1500
field max 170232.81180296
field sum 10975544.949997
field sqrsum 1244969836539.5
statistic Network1.final_Project_1_SinkA "End-to-End Delay"
field count 129
field mean 86408.491060736
field stddev 49299.243278583
field min 1500
field max 171150.39683803
field sum 11146695.346835
field sqrsum 1274262294877.4
statistic Network1.final_Project_1_SinkA "End-to-End Delay"
field count 130
field mean 87070.969075179
field stddev 49685.299476088
field min 1500
field max 172530.63293838
field sum 11319225.979773
field sqrsum 1304029114179.5
statistic Network1.final_Project_1_SinkA "End-to-End Delay"
field count 131
field mean 87732.381756547
field stddev 50069.428522802
field min 1500
field max 173716.03033435
field sum 11492942.010108
field sqrsum 1334206373374.6
statistic Network1.final_Project_1_SinkA "End-to-End Delay"
field count 132
field mean 88394.411331267
field stddev 50454.574067132
field min 1500
field max 175120.28561962
field sum 11668062.295727
field sqrsum 1364873487810.1
statistic Network1.final_Project_1_SinkA "End-to-End Delay"
field count 133
field mean 89056.644345501
field stddev 50840.005918475
field min 1500
field max 176471.40222434
field sum 11844533.697952
field sqrsum 1396015643613.1
statistic Network1.final_Project_1_SinkA "End-to-End Delay"
field count 134
field mean 89717.02128825
field stddev 51222.157444285
field min 1500
field max 177547.15467393
field sum 12022080.852626
field sqrsum 1427538635745.9
statistic Network1.final_Project_1_SinkA "End-to-End Delay"
field count 135
field mean 90378.240397726
field stddev 51605.745205376
field min 1500
field max 178981.60106757
field sum 12201062.453693
field sqrsum 1459573049266.6
statistic Network1.final_Project_1_SinkA "End-to-End Delay"
field count 136
field mean 91040.196956015
field stddev 51990.568773279
field min 1500
field max 180404.33232493
field sum 12381466.786018
field sqrsum 1492118772388.2
statistic Network1.final_Project_1_SinkA "End-to-End Delay"
field count 137
field mean 91703.413510667
field stddev 52377.518068962
field min 1500
field max 181900.86494343
field sum 12563367.650961
field sqrsum 1525206697055.4
statistic Network1.final_Project_1_SinkA "End-to-End Delay"
field count 138
field mean 92364.369760291
field stddev 52760.464990907
field min 1500
field max 182915.37595877
field sum 12746283.02692
field sqrsum 1558664731817.6
statistic Network1.final_Project_1_SinkA "End-to-End Delay"
field count 139
field mean 93023.860209894
field stddev 53140.851632806
field min 1500
field max 184033.54225508
field sum 12930316.569175
field sqrsum 1592533076492.5
statistic Network1.final_Project_1_SinkA "End-to-End Delay"
field count 140
field mean 93682.959817509
field stddev 53520.572169849
field min 1500
field max 185297.80527593
field sum 13115614.374451
field sqrsum 1626868353132.6
statistic Network1.final_Project_1_SinkA "End-to-End Delay"
field count 141
field mean 94342.315686473
field stddev 53900.751843788
field min 1500
field max 186652.13734151
field sum 13302266.511793
field sqrsum 1661707373506.7
statistic Network1.final_Project_1_SinkA "End-to-End Delay"
field count 142
field mean 95002.372539446
field stddev 54282.151811131
field min 1500
field max 188070.38880856
field sum 13490336.900601
field sqrsum 1697077844653.3
statistic Network1.final_Project_1_SinkA "End-to-End Delay"
field count 143
field mean 95663.257648589
field stddev 54664.976211861
field min 1500
field max 189508.94314695
field sum 13679845.843748
field sqrsum 1732991484186
statistic Network1.final_Project_1_SinkA "End-to-End Delay"
field count 144
field mean 96324.710668435
field stddev 55048.756551159
field min 1500
field max 190912.4925064
field sum 13870758.336255
field sqrsum 1769439063981
statistic Network1.final_Project_1_SinkA "End-to-End Delay"
field count 145
field mean 96985.357409547
field stddev 55431.103535713
field min 1500
field max 192118.48812977
field sum 14062876.824384
field sqrsum 1806348577462.3
statistic Network1.final_Project_1_SinkA "End-to-End Delay"
field count 146
field mean 97647.044847508
field stddev 55815.231462433
field min 1500
field max 193591.72335185
field sum 14256468.547736
field sqrsum 1843826332812.6
statistic Network1.final_Project_1_SinkA "End-to-End Delay"
field count 147
field mean 98308.739729795
field stddev 56199.329309179
field min 1500
field max 194916.19254367
field sum 14451384.74028
field sqrsum 1881818654928.3
statistic Network1.final_Project_1_SinkA "End-to-End Delay"
field count 148
field mean 98969.745689123
field stddev 56582.193446481
field min 1500
field max 196137.62171028
field sum 14647522.36199
field sqrsum 1920288621578.5
statistic Network1.final_Project_1_SinkA "End-to-End Delay"
field count 149
field mean 99631.312829153
field stddev 56966.003440986
field min 1500
field max 197543.24955359
field sum 14845065.611544
field sqrsum 1959311957022.7
statistic Network1.final_Project_1_SinkA "End-to-End Delay"
field count 150
field mean 100294.02001453
field stddev 57351.750661828
field min 1500
field max 199037.3906355
field sum 15044103.002179
field sqrsum 1998927839893.7
statistic Network1.final_Project_1_SinkA "End-to-End Delay"
field count 151
field mean 100955.77773396
field stddev 57735.791011986
field min 1500
field max 200219.4356485
field sum 15244322.437828
field sqrsum 2039015662305.1
statistic Network1.final_Project_1_SinkA "End-to-End Delay"
field count 152
field mean 101618.6948028
field stddev 58121.800543239
field min 1500
field max 201719.17219712
field sum 15446041.610025
field sqrsum 2079706286737
statistic Network1.final_Project_1_SinkA "End-to-End Delay"
field count 153
field mean 102281.77572803
field stddev 58508.029745878
field min 1500
field max 203070.07636325
field sum 15649111.686388
field sqrsum 2120943742651.2
statistic Network1.final_Project_1_SinkA "End-to-End Delay"
field count 154
field mean 102944.66748325
field stddev 58893.864541716
field min 1500
field max 204367.10603214
field sum 15853478.79242
field sqrsum 2162709656679.1
statistic Network1.final_Project_1_SinkA "End-to-End Delay"
field count 155
field mean 103607.94324773
field stddev 59280.30466048
field min 1500
field max 205752.41097779
field sum 16059231.203398
field sqrsum 2205043711302.3
statistic Network1.final_Project_1_SinkA "End-to-End Delay"
field count 156
field mean 104270.2335736
field stddev 59664.969607018
field min 1500
field max 206925.23408407
field sum 16266156.437482
field sqrsum 2247861763803
statistic Network1.final_Project_1_SinkA "End-to-End Delay"
field count 157
field mean 104933.23872527
field stddev 60050.829109866
field min 1500
field max 208362.04238455
field sum 16474518.479867
field sqrsum 2291276504509.7
statistic Network1.final_Project_1_SinkA "End-to-End Delay"
field count 158
field mean 105596.17171127
field stddev 60436.504998934
field min 1500
field max 209676.65051345
field sum 16684195.13038
field sqrsum 2335240802280.2
statistic Network1.final_Project_1_SinkA "End-to-End Delay"
field count 159
field mean 106259.63115157
field stddev 60823.038133982
field min 1500
field max 211086.22272001
field sum 16895281.3531
field sqrsum 2379798195702.4
statistic Network1.final_Project_1_SinkA "End-to-End Delay"
field count 160
field mean 106924.05105506
field stddev 61211.172562985
field min 1500
field max 212566.81570886
field sum 17107848.168809
field sqrsum 2424982846843
statistic Network1.final_Project_1_SinkA "End-to-End Delay"
field count 161
field mean 107589.31448792
field stddev 61600.687851653
field min 1500
field max 214031.46374618
field sum 17321879.632555
field sqrsum 2470792314316.4
statistic Network1.final_Project_1_SinkA "End-to-End Delay"
field count 162
field mean 108255.24302233
field stddev 61991.258847382
field min 1500
field max 215469.73706302
field sum 17537349.369618
field sqrsum 2517219521906.4
statistic Network1.final_Project_1_SinkA "End-to-End Delay"
field count 163
field mean 108921.79049178
field stddev 62382.794181885
field min 1500
field max 216902.48054195
field sum 17754251.85016
field sqrsum 2564266207971.6
statistic Network1.final_Project_1_SinkA "End-to-End Delay"
field count 164
field mean 109588.44234215
field stddev 62774.38755251
field min 1500
field max 218252.69395247
field sum 17972504.544113
field sqrsum 2611900446389.1
statistic Network1.final_Project_1_SinkA "End-to-End Delay"
field count 165
field mean 110255.94677626
field stddev 63167.343596808
field min 1500
field max 219726.67396958
field sum 18192231.218082
field sqrsum 2660180257642.9
statistic Network1.final_Project_1_SinkA "End-to-End Delay"
field count 166
field mean 110922.99785601
field stddev 63559.371283746
field min 1500
field max 220986.42601581
field sum 18413217.644098
field sqrsum 2709015258126.1
statistic Network1.final_Project_1_SinkA "End-to-End Delay"
field count 167
field mean 111590.95707964
field stddev 63952.85671548
field min 1500
field max 222472.18820172
field sum 18635689.8323
field sqrsum 2758509132649.4
statistic Network1.final_Project_1_SinkA "End-to-End Delay"
field count 168
field mean 112259.16893636
field stddev 64346.64130153
field min 1500
field max 223850.5490091
field sum 18859540.381309
field sqrsum 2808618200941.1
statistic Network1.final_Project_1_SinkA "End-to-End Delay"
field count 169
field mean 112928.31300369
field stddev 64741.909616646
field min 1500
field max 225344.51631526
field sum 19084884.897624
field sqrsum 2859398351974.4
statistic Network1.final_Project_1_SinkA "End-to-End Delay"
field count 170
field mean 113598.15607206
field stddev 65138.239559331
field min 1500
field max 226801.63462604
field sum 19311686.53225
field sqrsum 2910837333443.5
statistic Network1.final_Project_1_SinkA "End-to-End Delay"
field count 171
field mean 114267.13921602
field stddev 65532.896785622
field min 1500
field max 227994.27368871
field sum 19539680.805939
field sqrsum 2962818722278.3
statistic Network1.final_Project_1_SinkA "End-to-End Delay"
field count 172
field mean 114936.73867266
field stddev 65928.481570794
field min 1500
field max 229438.2457585
field sum 19769119.051697
field sqrsum 3015460630895
statistic Network1.final_Project_1_SinkA "End-to-End Delay"
field count 173
field mean 115606.90103284
field stddev 66324.892010704
field min 1500
field max 230874.82698412
field sum 19999993.878681
field sqrsum 3068763816630
statistic Network1.final_Project_1_SinkA "End-to-End Delay"
field count 174
field mean 116276.79331992
field stddev 66720.66465893
field min 1500
field max 232168.15898511
field sum 20232162.037667
field sqrsum 3122665870676.5
statistic Network1.final_Project_1_SinkA "End-to-End Delay"
field count 175
field mean 116946.42784747
field stddev 67115.8307251
field min 1500
field max 233462.83563998
field sum 20465624.873307
field sqrsum 3177170766301.6
statistic Network1.final_Project_1_SinkA "End-to-End Delay"
field count 176
field mean 117616.18573052
field stddev 67511.064610895
field min 1500
field max 234823.81526428
field sum 20700448.688571
field sqrsum 3232312990516.9
statistic Network1.final_Project_1_SinkA "End-to-End Delay"
field count 177
field mean 118285.60335019
field stddev 67905.557976631
field min 1500
field max 236103.10441299
field sum 20936551.792984
field sqrsum 3288057666430.3
statistic Network1.final_Project_1_SinkA "End-to-End Delay"
field count 178
field mean 118954.88320467
field stddev 68299.674587563
field min 1500
field max 237417.4174482
field sum 21173969.210432
field sqrsum 3344424696538.1
statistic Network1.final_Project_1_SinkA "End-to-End Delay"
field count 179
field mean 119624.67537505
field stddev 68694.55443498
field min 1500
field max 238847.68170232
field sum 21412816.892134
field sqrsum 3401472911592.7
statistic Network1.final_Project_1_SinkA "End-to-End Delay"
field count 180
field mean 120292.4030551
field stddev 69085.699326731
field min 1500
field max 239815.65778286
field sum 21652632.549917
field sqrsum 3458984461310.5
statistic Network1.final_Project_1_SinkA "End-to-End Delay"
field count 181
field mean 120959.82269558
field stddev 69476.214437688
field min 1500
field max 241095.35798289
field sum 21893727.9079
field sqrsum 3517111432951.4
statistic Network1.final_Project_1_SinkA "End-to-End Delay"
field count 182
field mean 121627.61183922
field stddev 69867.286175885
field min 1500
field max 242497.44683717
field sum 22136225.354737
field sqrsum 3575916444673.9
statistic Network1.final_Project_1_SinkA "End-to-End Delay"
field count 183
field mean 122294.92891591
field stddev 70257.445884667
field min 1500
field max 243746.63687371
field sum 22379971.991611
field sqrsum 3635328867661.2
statistic Network1.final_Project_1_SinkA "End-to-End Delay"
field count 184
field mean 122962.64002731
field stddev 70648.210495698
field min 1500
field max 245153.77341329
field sum 22625125.765024
field sqrsum 3695429240279.9
statistic Network1.final_Project_1_SinkA "End-to-End Delay"
field count 185
field mean 123627.43754725
field stddev 71033.833745763
field min 1500
field max 245950.18121675
field sum 22871075.946241
field sqrsum 3755920731920.5
statistic Network1.final_Project_1_SinkA "End-to-End Delay"
field count 186
field mean 124292.58233853
field stddev 71420.029294768
field min 1500
field max 247344.36872603
field sum 23118420.314967
field sqrsum 3817099968661
statistic Network1.final_Project_1_SinkA "End-to-End Delay"
field count 187
field mean 124958.61571198
field stddev 71807.730105352
field min 1500
field max 248840.82317368
field sum 23367261.138141
field sqrsum 3879021723938.7
statistic Network1.final_Project_1_SinkA "End-to-End Delay"
field count 188
field mean 125625.43197594
field stddev 72196.738825098
field min 1500
field max 250320.07333641
field sum 23617581.211477
field sqrsum 3941681863053.9
statistic Network1.final_Project_1_SinkA "End-to-End Delay"
field count 189
field mean 126293.00938531
field stddev 72587.005678495
field min 1500
field max 251797.56234668
field sum 23869378.773824
field sqrsum 4005083875457.6
statistic Network1.final_Project_1_SinkA "End-to-End Delay"
field count 190
field mean 126961.09762014
field stddev 72978.083801747
field min 1500
field max 253229.77400188
field sum 24122608.547826
field sqrsum 4069209193898.6
statistic Network1.final_Project_1_SinkA "End-to-End Delay"
field count 191
field mean 127628.23458192
field stddev 73367.423867262
field min 1500
field max 254384.25732161
field sum 24376992.805147
field sqrsum 4133920544271.7
statistic Network1.final_Project_1_SinkA "End-to-End Delay"
field count 192
field mean 128296.14106326
field stddev 73758.035613318
field min 1500
field max 255866.27899843
field sum 24632859.084146
field sqrsum 4199388097000.2
statistic Network1.final_Project_1_SinkA "End-to-End Delay"
field count 193
field mean 128964.30397225
field stddev 74149.015073474
field min 1500
field max 257251.58249914
field sum 24890110.666645
field sqrsum 4265566473698.5
statistic Network1.final_Project_1_SinkA "End-to-End Delay"
field count 194
field mean 129632.60851672
field stddev 74540.159650606
field min 1500
field max 258615.38559957
field sum 25148726.052244
field sqrsum 4332448391367.3
statistic Network1.final_Project_1_SinkA "End-to-End Delay"
field count 195
field mean 130299.99982845
field stddev 74929.63491739
field min 1500
field max 259773.91430363
field sum 25408499.966548
field sqrsum 4399930877920
statistic Network1.final_Project_1_SinkA "End-to-End Delay"
field count 196
field mean 130968.16098555
field stddev 75320.383998258
field min 1500
field max 261259.5866188
field sum 25669759.553167
field sqrsum 4468187449520.2
statistic Network1.final_Project_1_SinkA "End-to-End Delay"
field count 197
field mean 131636.56700333
field stddev 75711.482429167
field min 1500
field max 262644.14648877
field sum 25932403.699656
field sqrsum 4537169397205
statistic Network1.final_Project_1_SinkA "End-to-End Delay"
field count 198
field mean 132304.9136477
field stddev 76102.398369518
field min 1500
field max 263969.20258803
field sum 26196372.902244
field sqrsum 4606849137120
statistic Network1.final_Project_1_SinkA "End-to-End Delay"
field count 199
field mean 132973.24215899
field stddev 76493.206204324
field min 1500
field max 265302.28739476
field sum 26461675.189638
field sqrsum 4677234440816.9
statistic Network1.final_Project_1_SinkA "End-to-End Delay"
field count 200
field mean 133636.71700295
field stddev 76875.531222957
field min 1500
field max 265668.21095084
field sum 26727343.400589
field sqrsum 4747814039126.7
statistic Network1.final_Project_1_SinkA "End-to-End Delay"
field count 201
field mean 134300.2875061
field stddev 77258.032285651
field min 1500
field max 267014.38813621
field sum 26994357.788725
field sqrsum 4819110722598.4
statistic Network1.final_Project_1_SinkA "End-to-End Delay"
field count 202
field mean 134963.55696221
field stddev 77640.022795032
field min 1500
field max 268280.7176409
field sum 27262638.506366
field sqrsum 4891085266056.4
statistic Network1.final_Project_1_SinkA "End-to-End Delay"
field count 203
field mean 135627.33876838
field stddev 78022.911792148
field min 1500
field max 269711.26361426
field sum 27532349.769981
field sqrsum 4963829431776.8
statistic Network1.final_Project_1_SinkA "End-to-End Delay"
field count 204
field mean 136289.46873524
field stddev 78402.95654166
field min 1500
field max 270701.85200813
field sum 27803051.621989
field sqrsum 5037108924457.4
statistic Network1.final_Project_1_SinkA "End-to-End Delay"
field count 205
field mean 136951.63335681
field stddev 78783.093573525
field min 1500
field max 272033.21615685
field sum 28075084.838146
field sqrsum 5111110995150
statistic Network1.final_Project_1_SinkA "End-to-End Delay"
field count 206
field mean 137614.21572003
field stddev 79163.982009941
field min 1500
field max 273443.6001802
field sum 28348528.438326
field sqrsum 5185882397629.5
statistic Network1.final_Project_1_SinkA "End-to-End Delay"
field count 207
field mean 138277.33861393
field stddev 79545.826705814
field min 1500
field max 274880.65475752
field sum 28623409.093083
field sqrsum 5261441771989.5
statistic Network1.final_Project_1_SinkA "End-to-End Delay"
field count 208
field mean 138940.40864671
field stddev 79927.594708392
field min 1500
field max 276195.90543269
field sum 28899604.998516
field sqrsum 5337725950167.2
statistic Network1.final_Project_1_SinkA "End-to-End Delay"
field count 209
field mean 139603.6855877
field stddev 80309.734920903
field min 1500
field max 277565.2893125
field sum 29177170.287829
field sqrsum 5414768439998.4
statistic Network1.final_Project_1_SinkA "End-to-End Delay"
field count 210
field mean 140267.17247765
field stddev 80692.249045308
field min 1500
field max 278935.93247764
field sum 29456106.220306
field sqrsum 5492573694425.5
statistic Network1.final_Project_1_SinkA "End-to-End Delay"
field count 211
field mean 140931.06770438
field stddev 81075.476290497
field min 1500
field max 280349.0653175
field sum 29736455.285624
field sqrsum 5571169292849.9
statistic Network1.final_Project_1_SinkA "End-to-End Delay"
field count 212
field mean 141595.48338806
field stddev 81459.604172468
field min 1500
field max 281787.19264531
field sum 30018242.478269
field sqrsum 5650573314788.9
statistic Network1.final_Project_1_SinkA "End-to-End Delay"
field count 213
field mean 142260.32380568
field stddev 81844.459297512
field min 1500
field max 283206.49234159
field sum 30301448.970611
field sqrsum 5730779232093.3
statistic Network1.final_Project_1_SinkA "End-to-End Delay"
field count 214
field mean 142925.88002733
field stddev 82230.539436729
field min 1500
field max 284689.35523887
field sum 30586138.325849
field sqrsum 5811827261079.6
statistic Network1.final_Project_1_SinkA "End-to-End Delay"
field count 215
field mean 143591.5966754
field stddev 82616.872022623
field min 1500
field max 286054.95936084
field sum 30872193.28521
field sqrsum 5893654700854.5
statistic Network1.final_Project_1_SinkA "End-to-End Delay"
field count 216
field mean 144257.94202628
field stddev 83004.26671805
field min 1500
field max 287522.19246685
field sum 31159715.477677
field sqrsum 5976323712015.5
statistic Network1.final_Project_1_SinkA "End-to-End Delay"
field count 217
field mean 144924.49919731
field stddev 83391.991594238
field min 1500
field max 288900.8481385
field sum 31448616.325816
field sqrsum 6059787412070.6
statistic Network1.final_Project_1_SinkA "End-to-End Delay"
field count 218
field mean 145590.95436226
field stddev 83779.499686861
field min 1500
field max 290211.72515688
field sum 31738828.050973
field sqrsum 6144010257489.2
statistic Network1.final_Project_1_SinkA "End-to-End Delay"
field count 219
field mean 146256.37397806
field stddev 84165.175899404
field min 1500
field max 291317.85022346
field sum 32030145.901196
field sqrsum 6228876347348
statistic Network1.final_Project_1_SinkA "End-to-End Delay"
field count 220
field mean 146921.37945974
field stddev 84550.114873842
field min 1500
field max 292557.57994587
field sum 32322703.481142
field sqrsum 6314466284931.8
statistic Network1.final_Project_1_SinkA "End-to-End Delay"
field count 221
field mean 147586.66286989
field stddev 84935.521309461
field min 1500
field max 293949.01310478
field sum 32616652.494247
field sqrsum 6400872307237
statistic Network1.final_Project_1_SinkA "End-to-End Delay"
field count 222
field mean 148252.35822603
field stddev 85321.623406917
field min 1500
field max 295371.03193174
field sum 32912023.526178
field sqrsum 6488116353741.5
statistic Network1.final_Project_1_SinkA "End-to-End Delay"
field count 223
field mean 148918.05017563
field stddev 85707.69585459
field min 1500
field max 296701.66298747
field sum 33208725.189166
field sqrsum 6576148230561
statistic Network1.final_Project_1_SinkA "End-to-End Delay"
field count 224
field mean 149584.44072195
field stddev 86094.955632035
field min 1500
field max 298189.53255111
field sum 33506914.721717
field sqrsum 6665065227884
statistic Network1.final_Project_1_SinkA "End-to-End Delay"
field count 225
field mean 150251.2508473
field stddev 86482.909396952
field min 1500
field max 299616.7189252
field sum 33806531.440642
field sqrsum 6754835406143.5
statistic Network1.final_Project_1_SinkA "End-to-End Delay"
field count 226
field mean 150917.58437451
field stddev 86869.997100818
field min 1500
field max 300842.62799619
field sum 34107374.068638
field sqrsum 6845341692963.2
statistic Network1.final_Project_1_SinkA "End-to-End Delay"
field count 227
field mean 151584.06972371
field stddev 87257.31648062
field min 1500
field max 302209.75864381
field sum 34409583.827282
field sqrsum 6936672431182.8
statistic Network1.final_Project_1_SinkA "End-to-End Delay"
field count 228
field mean 152251.27513321
field stddev 87645.851667549
field min 1500
field max 303706.90309033
field sum 34713290.730372
field sqrsum 7028910314167.5
statistic Network1.final_Project_1_SinkA "End-to-End Delay"
field count 229
field mean 152917.96554389
field stddev 88033.449651603
field min 1500
field max 304923.3791778
field sum 35018214.10955
field sqrsum 7121888581336.7
statistic Network1.final_Project_1_SinkA "End-to-End Delay"
field count 230
field mean 153584.93119275
field stddev 88421.489929856
field min 1500
field max 306320.06478255
field sum 35324534.174333
field sqrsum 7215720563425.1
statistic Network1.final_Project_1_SinkA "End-to-End Delay"
field count 231
field mean 154252.59392893
field stddev 88810.701481459
field min 1500
field max 307815.02324919
field sum 35632349.197582
field sqrsum 7310470651963
statistic Network1.final_Project_1_SinkA "End-to-End Delay"
field count 232
field mean 154920.43613999
field stddev 89200.176190314
field min 1500
field max 309191.98689473
field sum 35941541.184477
field sqrsum 7406070336722.9
statistic Network1.final_Project_1_SinkA "End-to-End Delay"
field count 233
field mean 155588.76868461
field stddev 89590.452447498
field min 1500
field max 310641.9190377
field sum 36252183.103514
field sqrsum 7502568738586.3
statistic Network1.final_Project_1_SinkA "End-to-End Delay"
field count 234
field mean 156256.64307925
field stddev 89979.875763919
field min 1500
field max 311871.37703014
field sum 36564054.480545
field sqrsum 7599832494397
statistic Network1.final_Project_1_SinkA "End-to-End Delay"
field count 235
field mean 156925.04463639
field stddev 90370.165912763
field min 1500
field max 313331.00900817
field sum 36877385.489553
field sqrsum 7698008815603.1
statistic Network1.final_Project_1_SinkA "End-to-End Delay"
field count 236
field mean 157591.38394917
field stddev 90756.821200398
field min 1500
field max 314181.12245085
field sum 37191566.612004
field sqrsum 7796718593307.5
statistic Network1.final_Project_1_SinkA "End-to-End Delay"
field count 237
field mean 158258.36667756
field stddev 91144.56719673
field min 1500
field max 315666.29057704
field sum 37507232.902581
field sqrsum 7896363800314.2
statistic Network1.final_Project_1_SinkA "End-to-End Delay"
field count 238
field mean 158923.20830753
field stddev 91528.572154816
field min 1500
field max 316490.67461168
field sum 37823723.577192
field sqrsum 7996530147430.4
statistic Network1.final_Project_1_SinkA "End-to-End Delay"
field count 239
field mean 159588.50942643
field stddev 91913.369757885
field min 1500
field max 317930.17572402
field sum 38141653.752916
field sqrsum 8097609744066.3
statistic Network1.final_Project_1_SinkA "End-to-End Delay"
field count 240
field mean 160254.45568741
field stddev 92299.275396516
field min 1500
field max 319415.61206094
field sum 38461069.364977
field sqrsum 8199636077294.5
statistic Network1.final_Project_1_SinkA "End-to-End Delay"
field count 241
field mean 160920.97855008
field stddev 92686.162189794
field min 1500
field max 320886.46559199
field sum 38781955.830569
field sqrsum 8302604201094.6
statistic Network1.final_Project_1_SinkA "End-to-End Delay"
field count 242
field mean 161587.58621481
field stddev 93073.170245197
field min 1500
field max 322240.03341473
field sum 39104195.863984
field sqrsum 8406442840229.8
statistic Network1.final_Project_1_SinkA "End-to-End Delay"
field count 243
field mean 162254.33375198
field stddev 93460.394249598
field min 1500
field max 323607.23774644
field sum 39427803.10173
field sqrsum 8511164484551.7
statistic Network1.final_Project_1_SinkA "End-to-End Delay"
field count 244
field mean 162921.38655654
field stddev 93848.119492297
field min 1500
field max 325015.21806563
field sum 39752818.319796
field sqrsum 8616799376525.9
statistic Network1.final_Project_1_SinkA "End-to-End Delay"
field count 245
field mean 163584.82725977
field stddev 94229.565262052
field min 1500
field max 325464.35884813
field sum 40078282.678644
field sqrsum 8722726425406.3
statistic Network1.final_Project_1_SinkA "End-to-End Delay"
field count 246
field mean 164248.2457543
field stddev 94610.992069488
field min 1500
field max 326785.77691275
field sum 40405068.455557
field sqrsum 8829515369398.8
statistic Network1.final_Project_1_SinkA "End-to-End Delay"
field count 247
field mean 164911.84596339
field stddev 94992.751725038
field min 1500
field max 328157.49739943
field sum 40733225.952956
field sqrsum 8937202712498.3
statistic Network1.final_Project_1_SinkA "End-to-End Delay"
field count 248
field mean 165575.54671713
field stddev 95374.701411787
field min 1500
field max 329509.63289096
field sum 41062735.585847
field sqrsum 9045779310666.2
statistic Network1.final_Project_1_SinkA "End-to-End Delay"
field count 249
field mean 166239.69583513
field stddev 95757.440041369
field min 1500
field max 330948.67709969
field sum 41393684.262947
field sqrsum 9155306337540.2
statistic Network1.final_Project_1_SinkA "End-to-End Delay"
field count 250
field mean 166904.46878266
field stddev 96141.265026647
field min 1500
field max 332432.93271752
field sum 41726117.195665
field sqrsum 9265817992295.4
statistic Network1.final_Project_1_SinkA "End-to-End Delay"
field count 251
field mean 167569.81128651
field stddev 96526.074778084
field min 1500
field max 333905.43724836
field sum 42060022.632913
field sqrsum 9377310833319.4
statistic Network1.final_Project_1_SinkA "End-to-End Delay"
field count 252
field mean 168235.1142698
field stddev 96910.808134224
field min 1500
field max 335226.16307574
field sum 42395248.795989
field sqrsum 9489687413729.9
statistic Network1.final_Project_1_SinkA "End-to-End Delay"
field count 253
field mean 168900.41779121
field stddev 97295.535066517
field min 1500
field max 336556.90518726
field sum 42731805.701176
field sqrsum 9602957964159.1
statistic Network1.final_Project_1_SinkA "End-to-End Delay"
field count 254
field mean 169565.78712135
field stddev 97680.368607372
field min 1500
field max 337904.2276472
field sum 43069709.928823
field sqrsum 9717137231221
statistic Network1.final_Project_1_SinkA "End-to-End Delay"
field count 255
field mean 170231.81285121
field stddev 98066.330357041
field min 1500
field max 339402.34823417
field sum 43409112.277057
field sqrsum 9832331185207.9
statistic Network1.final_Project_1_SinkA "End-to-End Delay"
field count 256
field mean 170895.99044346
field stddev 98449.079039719
field min 1500
field max 340261.27646834
field sum 43749373.553526
field sqrsum 9948108921471.7
statistic Network1.final_Project_1_SinkA "End-to-End Delay"
field count 257
field mean 171559.64863164
field stddev 98830.939325032
field min 1500
field max 341456.1448061
field sum 44090829.698332
field sqrsum 10064701220298
statistic Network1.final_Project_1_SinkA "End-to-End Delay"
field count 258
field mean 172223.46358496
field stddev 99213.085298087
field min 1500
field max 342823.90658727
field sum 44433653.604919
field sqrsum 10182229451225
statistic Network1.final_Project_1_SinkA "End-to-End Delay"
field count 259
field mean 172887.00724172
field stddev 99594.775834244
field min 1500
field max 344081.27068712
field sum 44777734.875606
field sqrsum 10300621372063
statistic Network1.final_Project_1_SinkA "End-to-End Delay"
field count 260
field mean 173551.13529961
field stddev 99977.491443653
field min 1500
field max 345560.3022925
field sum 45123295.177899
field sqrsum 10420033294583
statistic Network1.final_Project_1_SinkA "End-to-End Delay"
field count 261
field mean 174214.80658113
field stddev 100359.42664732
field min 1500
field max 346769.33977735
field sum 45470064.517676
field sqrsum 10540282269593
statistic Network1.final_Project_1_SinkA "End-to-End Delay"
field count 262
field mean 174879.02472255
field stddev 100742.32023714
field min 1500
field max 348239.95963123
field sum 45818304.477307
field sqrsum 10661553339077
statistic Network1.final_Project_1_SinkA "End-to-End Delay"
field count 263
field mean 175543.30628265
field stddev 101125.33013847
field min 1500
field max 349585.07502943
field sum 46167889.552337
field sqrsum 10783763063760
statistic Network1.final_Project_1_SinkA "End-to-End Delay"
field count 264
field mean 176207.54251979
field stddev 101508.26756506
field min 1500
field max 350901.67288799
field sum 46518791.225225
field sqrsum 10906895047796
statistic Network1.final_Project_1_SinkA "End-to-End Delay"
field count 265
field mean 176871.75892514
field stddev 101891.17705711
field min 1500
field max 352224.88993707
field sum 46871016.115162
field sqrsum 11030957420887
statistic Network1.final_Project_1_SinkA "End-to-End Delay"
field count 266
field mean 177535.57697343
field stddev 102273.40506651
field min 1500
field max 353447.35977062
field sum 47224463.474932
field sqrsum 11155882457016
statistic Network1.final_Project_1_SinkA "End-to-End Delay"
field count 267
field mean 178199.17156347
field stddev 102655.25884774
field min 1500
field max 354715.33251496
field sum 47579178.807447
field sqrsum 11281705424137
statistic Network1.final_Project_1_SinkA "End-to-End Delay"
field count 268
field mean 178862.76452643
field stddev 103037.12402788
field min 1500
field max 356042.08563556
field sum 47935220.893083
field sqrsum 11408471390881
statistic Network1.final_Project_1_SinkA "End-to-End Delay"
field count 269
field mean 179526.35848912
field stddev 103419.00495119
field min 1500
field max 357369.5404901
field sum 48292590.433573
field sqrsum 11536184379351
statistic Network1.final_Project_1_SinkA "End-to-End Delay"
field count 270
field mean 180190.4601792
field stddev 103801.77639055
field min 1500
field max 358833.81481231
field sum 48651424.248385
field sqrsum 11664946086004
statistic Network1.final_Project_1_SinkA "End-to-End Delay"
field count 271
field mean 180855.10402936
field stddev 104185.49191191
field min 1500
field max 360308.94357055
field sum 49011733.191956
field sqrsum 11794768620821
statistic Network1.final_Project_1_SinkA "End-to-End Delay"
field count 272
field mean 181519.88213823
field stddev 104569.43975527
field min 1500
field max 361674.74964343
field sum 49373407.941599
field sqrsum 11925577245350
statistic Network1.final_Project_1_SinkA "End-to-End Delay"
field count 273
field mean 182183.80408442
field stddev 104951.90655964
field min 1500
field max 362770.57344852
field sum 49736178.515048
field sqrsum 12057179734310
statistic Network1.final_Project_1_SinkA "End-to-End Delay"
field count 274
field mean 182847.34208786
field stddev 105333.71975047
field min 1500
field max 363993.21702631
field sum 50100171.732074
field sqrsum 12189670796352
statistic Network1.final_Project_1_SinkA "End-to-End Delay"
field count 275
field mean 183511.49746636
field stddev 105716.61299905
field min 1500
field max 365490.0711741
field sum 50465661.803248
field sqrsum 12323253788478
statistic Network1.final_Project_1_SinkA "End-to-End Delay"
field count 276
field mean 184176.04093079
field stddev 106100.18297914
field min 1500
field max 366925.49364941
field sum 50832587.296898
field sqrsum 12457888106368
statistic Network1.final_Project_1_SinkA "End-to-End Delay"
field count 277
field mean 184840.6120494
field stddev 106483.80189743
field min 1500
field max 368262.24078584
field sum 51200849.537683
field sqrsum 12593505184357
statistic Network1.final_Project_1_SinkA "End-to-End Delay"
field count 278
field mean 185504.55540899
field stddev 106866.33683448
field min 1500
field max 369416.86601619
field sum 51570266.4037
field sqrsum 12729974005254
statistic Network1.final_Project_1_SinkA "End-to-End Delay"
field count 279
field mean 186167.72661772
field stddev 107247.54739032
field min 1500
field max 370529.32264429
field sum 51940795.726344
field sqrsum 12867265984193
statistic Network1.final_Project_1_SinkA "End-to-End Delay"
field count 280
field mean 186831.485655
field stddev 107629.7903971
field min 1500
field max 372020.25705507
field sum 52312815.983399
field sqrsum 13005665055853
statistic Network1.final_Project_1_SinkA "End-to-End Delay"
field count 281
field mean 187495.16474449
field stddev 108011.90578013
field min 1500
field max 373325.30980317
field sum 52686141.293202
field sqrsum 13145036842792
statistic Network1.final_Project_1_SinkA "End-to-End Delay"
field count 282
field mean 188159.40529918
field stddev 108395.0022661
field min 1500
field max 374811.00116567
field sum 53060952.294368
field sqrsum 13285520129387
statistic Network1.final_Project_1_SinkA "End-to-End Delay"
field count 283
field mean 188822.4719488
field stddev 108776.07616102
field min 1500
field max 375807.26714337
field sum 53436759.561511
field sqrsum 13426751231425
statistic Network1.final_Project_1_SinkA "End-to-End Delay"
field count 284
field mean 189485.86780943
field stddev 109157.73652611
field min 1500
field max 377226.89636672
field sum 53813986.457878
field sqrsum 13569051362767
statistic Network1.final_Project_1_SinkA "End-to-End Delay"
field count 285
field mean 190149.55896182
field stddev 109539.92086884
field min 1500
field max 378637.84624216
field sum 54192624.30412
field sqrsum 13712417981374
statistic Network1.final_Project_1_SinkA "End-to-End Delay"
field count 286
field mean 190811.74089027
field stddev 109919.51243028
field min 1500
field max 379533.59049679
field sum 54572157.894617
field sqrsum 13856463727690
statistic Network1.final_Project_1_SinkA "End-to-End Delay"
field count 287
field mean 191473.28169127
field stddev 110298.02813231
field min 1500
field max 380673.95077873
field sum 54952831.845396
field sqrsum 14001376384491
statistic Network1.final_Project_1_SinkA "End-to-End Delay"
field count 288
field mean 192134.84144888
field stddev 110676.61192023
field min 1500
field max 382002.4918829
field sum 55334834.337278
field sqrsum 14147302288296
statistic Network1.final_Project_1_SinkA "End-to-End Delay"
field count 289
field mean 192796.87368087
field stddev 111056.04414326
field min 1500
field max 383462.15649421
field sum 55718296.493773
field sqrsum 14294345513759
statistic Network1.final_Project_1_SinkA "End-to-End Delay"
field count 290
field mean 193458.56877078
field stddev 111434.92439248
field min 1500
field max 384688.44975289
field sum 56102984.943526
field sqrsum 14442330717132
statistic Network1.final_Project_1_SinkA "End-to-End Delay"
field count 291
field mean 194120.84845099
field stddev 111814.84407779
field min 1500
field max 386181.95571246
field sum 56489166.899238
field sqrsum 14591467220050
statistic Network1.final_Project_1_SinkA "End-to-End Delay"
field count 292
field mean 194782.90835273
field stddev 112194.4100309
field min 1500
field max 387442.33975934
field sum 56876609.238997
field sqrsum 14741578786688
statistic Network1.final_Project_1_SinkA "End-to-End Delay"
field count 293
field mean 195445.00802508
field stddev 112574.07176245
field min 1500
field max 388778.11235085
field sum 57265387.351348
field sqrsum 14892727207332
statistic Network1.final_Project_1_SinkA "End-to-End Delay"
field count 294
field mean 196107.3508175
field stddev 112954.17896417
field min 1500
field max 390173.7889973
field sum 57655561.140346
field sqrsum 15044962792952
statistic Network1.final_Project_1_SinkA "End-to-End Delay"
field count 295
field mean 196768.71504081
field stddev 113332.62357368
field min 1500
field max 391209.79669326
field sum 58046770.937039
field sqrsum 15198007897981
statistic Network1.final_Project_1_SinkA "End-to-End Delay"
field count 296
field mean 197429.99815159
field stddev 113710.96273524
field min 1500
field max 392508.51583332
field sum 58439279.452872
field sqrsum 15352070832983
statistic Network1.final_Project_1_SinkA "End-to-End Delay"
field count 297
field mean 198091.82893777
field stddev 114090.27974474
field min 1500
field max 393993.74164547
field sum 58833273.194518
field sqrsum 15507301901438
statistic Network1.final_Project_1_SinkA "End-to-End Delay"
field count 298
field mean 198752.827967
field stddev 114468.19252059
field min 1500
field max 395069.53964957
field sum 59228342.734167
field sqrsum 15663381842597
statistic Network1.final_Project_1_SinkA "End-to-End Delay"
field count 299
field mean 199413.56658597
field stddev 114845.69426816
field min 1500
field max 396313.67503796
field sum 59624656.409205
field sqrsum 15820446371619
statistic Network1.final_Project_1_SinkA "End-to-End Delay"
field count 300
field mean 200074.82135241
field stddev 115224.12377463
field min 1500
field max 397789.99651847
field sum 60022446.405724
field sqrsum 15978683252950
statistic Network1.final_Project_1_SinkA "End-to-End Delay"
field count 301
field mean 200735.32036891
field stddev 115601.28595661
field min 1500
field max 398885.02531943
field sum 60421331.431043
field sqrsum 16137792516374
statistic Network1.final_Project_1_SinkA "End-to-End Delay"
field count 302
field mean 201396.12591186
field stddev 115979.01663586
field min 1500
field max 400298.59433768
field sum 60821630.025381
field sqrsum 16298031481002
statistic Network1.final_Project_1_SinkA "End-to-End Delay"
field count 303
field mean 202056.92293984
field stddev 116356.76988658
field min 1500
field max 401617.62539155
field sum 61223247.650772
field sqrsum 16459328198027
statistic Network1.final_Project_1_SinkA "End-to-End Delay"
field count 304
field mean 202718.05980062
field stddev 116735.14491998
field min 1500
field max 403042.52861654
field sum 61626290.179389
field sqrsum 16621771477901
statistic Network1.final_Project_1_SinkA "End-to-End Delay"
field count 305
field mean 203379.30505792
field stddev 117113.73918431
field min 1500
field max 404397.86327679
field sum 62030688.042666
field sqrsum 16785309109724
statistic Network1.final_Project_1_SinkA "End-to-End Delay"
field count 306
field mean 204040.83551086
field stddev 117492.85566025
field min 1500
field max 405807.62365788
field sum 62436495.666323
field sqrsum 16949988937143
statistic Network1.final_Project_1_SinkA "End-to-End Delay"
field count 307
field mean 204702.22663685
field stddev 117871.75950013
field min 1500
field max 407087.91118833
field sum 62843583.577512
field sqrsum 17115709504578
statistic Network1.final_Project_1_SinkA "End-to-End Delay"
field count 308
field mean 205363.46068631
field stddev 118250.42135949
field min 1500
field max 408362.31387152
field sum 63251945.891383
field sqrsum 17282469283969
statistic Network1.final_Project_1_SinkA "End-to-End Delay"
field count 309
field mean 206024.73198684
field stddev 118629.17732181
field min 1500
field max 409696.29254993
field sum 63661642.183933
field sqrsum 17450320336098
statistic Network1.final_Project_1_SinkA "End-to-End Delay"
field count 310
field mean 206685.7293433
field stddev 119007.4906557
field min 1500
field max 410933.91249109
field sum 64072576.096424
field sqrsum 17619187016533
statistic Network1.final_Project_1_SinkA "End-to-End Delay"
field count 311
field mean 207347.2858092
field stddev 119386.79889224
field min 1500
field max 412429.79023602
field sum 64485005.88666
field sqrsum 17789285348407
statistic Network1.final_Project_1_SinkA "End-to-End Delay"
field count 312
field mean 208008.12777579
field stddev 119764.90168843
field min 1500
field max 413529.97938748
field sum 64898535.866048
field sqrsum 17960292392260
statistic Network1.final_Project_1_SinkA "End-to-End Delay"
field count 313
field mean 208669.53795012
field stddev 120144.01586447
field min 1500
field max 415029.51233947
field sum 65313565.378387
field sqrsum 18132541888372
statistic Network1.final_Project_1_SinkA "End-to-End Delay"
field count 314
field mean 209330.77465329
field stddev 120522.85730713
field min 1500
field max 416297.86274425
field sum 65729863.241132
field sqrsum 18305845798898
statistic Network1.final_Project_1_SinkA "End-to-End Delay"
field count 315
field mean 209992.27477572
field stddev 120902.18035189
field min 1500
field max 417703.31321879
field sum 66147566.55435
field sqrsum 18480321856772
statistic Network1.final_Project_1_SinkA "End-to-End Delay"
field count 316
field mean 210653.49905777
field stddev 121281.05257991
field min 1500
field max 418939.14790551
field sum 66566505.702256
field sqrsum 18655831866420
statistic Network1.final_Project_1_SinkA "End-to-End Delay"
field count 317
field mean 211315.21504788
field stddev 121660.79944796
field min 1500
field max 420417.46792311
field sum 66986923.170179
field sqrsum 18832582713755
statistic Network1.final_Project_1_SinkA "End-to-End Delay"
field count 318
field mean 211977.32072506
field stddev 122041.23997699
field min 1500
field max 421864.82039157
field sum 67408787.990571
field sqrsum 19010552640439
statistic Network1.final_Project_1_SinkA "End-to-End Delay"
field count 319
field mean 212639.77338378
field stddev 122422.29641516
field min 1500
field max 423299.71885592
field sum 67832087.709426
field sqrsum 19189735292422
statistic Network1.final_Project_1_SinkA "End-to-End Delay"
field count 320
field mean 213302.28855315
field stddev 122803.47395237
field min 1500
field max 424644.62758018
field sum 68256732.337007
field sqrsum 19370058352155
statistic Network1.final_Project_1_SinkA "End-to-End Delay"
field count 321
field mean 213964.80806725
field stddev 123184.67134625
field min 1500
field max 425971.05258167
field sum 68682703.389588
field sqrsum 19551509689792
statistic Network1.final_Project_1_SinkA "End-to-End Delay"
field count 322
field mean 214626.67710894
field stddev 123564.75842979
field min 1500
field max 427086.63949101
field sum 69109790.029079
field sqrsum 19733912687424
statistic Network1.final_Project_1_SinkA "End-to-End Delay"
field count 323
field mean 215288.01516458
field stddev 123943.94891852
field min 1500
field max 428238.86907848
field sum 69538028.898158
field sqrsum 19917301216414
statistic Network1.final_Project_1_SinkA "End-to-End Delay"
field count 324
field mean 215948.43958879
field stddev 124321.59008336
field min 1500
field max 429265.52860902
field sum 69967294.426767
field sqrsum 20101570110466
statistic Network1.final_Project_1_SinkA "End-to-End Delay"
field count 325
field mean 216609.33820691
field stddev 124700.0812581
field min 1500
field max 430740.4904779
field sum 70398034.917245
field sqrsum 20287107480603
statistic Network1.final_Project_1_SinkA "End-to-End Delay"
field count 326
field mean 217270.67480825
field stddev 125079.35529631
field min 1500
field max 432205.07024462
field sum 70830239.987489
field sqrsum 20473908703348
statistic Network1.final_Project_1_SinkA "End-to-End Delay"
field count 327
field mean 217932.14648481
field stddev 125458.88546285
field min 1500
field max 433571.91304262
field sum 71263811.900532
field sqrsum 20661893307127
statistic Network1.final_Project_1_SinkA "End-to-End Delay"
field count 328
field mean 218593.87438494
field stddev 125838.87906393
field min 1500
field max 434978.89772995
field sum 71698790.798262
field sqrsum 20851099948598
statistic Network1.final_Project_1_SinkA "End-to-End Delay"
field count 329
field mean 219255.98729649
field stddev 126219.55560826
field min 1500
field max 436429.02228454
field sum 72135219.820546
field sqrsum 21041570240090
statistic Network1.final_Project_1_SinkA "End-to-End Delay"
field count 330
field mean 219918.41130347
field stddev 126600.78364087
field min 1500
field max 437855.90959943
field sum 72573075.730146
field sqrsum 21233288037661
statistic Network1.final_Project_1_SinkA "End-to-End Delay"
field count 331
field mean 220579.18366102
field stddev 126979.1743141
field min 1500
field max 438634.06165157
field sum 73011709.791797
field sqrsum 21425687877702
statistic Network1.final_Project_1_SinkA "End-to-End Delay"
field count 332
field mean 221240.15645266
field stddev 127357.93820148
field min 1500
field max 440022.15048564
field sum 73451731.942283
field sqrsum 21619307370620
statistic Network1.final_Project_1_SinkA "End-to-End Delay"
field count 333
field mean 221901.39400601
field stddev 127737.18392228
field min 1500
field max 441432.26171865
field sum 73893164.204002
field sqrsum 21814169812306
statistic Network1.final_Project_1_SinkA "End-to-End Delay"
field count 334
field mean 222561.19132067
field stddev 128113.97209661
field min 1500
field max 442273.69710255
field sum 74335437.901104
field sqrsum 22009775835455
statistic Network1.final_Project_1_SinkA "End-to-End Delay"
field count 335
field mean 223220.74039929
field stddev 128490.37018425
field min 1500
field max 443510.13265766
field sum 74778948.033762
field sqrsum 22206477073225
statistic Network1.final_Project_1_SinkA "End-to-End Delay"
field count 336
field mean 223880.56540529
field stddev 128867.28178984
field min 1500
field max 444921.94241652
field sum 75223869.976178
field sqrsum 22404432608069
statistic Network1.final_Project_1_SinkA "End-to-End Delay"
field count 337
field mean 224540.76935489
field stddev 129244.88123461
field min 1500
field max 446369.29642095
field sum 75670239.272599
field sqrsum 22603678156856
statistic Network1.final_Project_1_SinkA "End-to-End Delay"
field count 338
field mean 225200.92709833
field stddev 129622.43261422
field min 1500
field max 447674.08663612
field sum 76117913.359236
field sqrsum 22804090244701
statistic Network1.final_Project_1_SinkA "End-to-End Delay"
field count 339
field mean 225861.10333272
field stddev 130000.04739771
field min 1500
field max 449000.67055687
field sum 76566914.029792
field sqrsum 23005691846862
statistic Network1.final_Project_1_SinkA "End-to-End Delay"
field count 340
field mean 226521.00639305
field stddev 130377.22299677
field min 1500
field max 450228.14384421
field sum 77017142.173637
field sqrsum 23208397228371
statistic Network1.final_Project_1_SinkA "End-to-End Delay"
field count 341
field mean 227181.1328043
field stddev 130754.81641804
field min 1500
field max 451624.11263126
field sum 77468766.286268
field sqrsum 23412361567481
statistic Network1.final_Project_1_SinkA "End-to-End Delay"
field count 342
field mean 227840.87846286
field stddev 131131.78528019
field min 1500
field max 452814.14803007
field sum 77921580.434298
field sqrsum 23617402220137
statistic Network1.final_Project_1_SinkA "End-to-End Delay"
field count 343
field mean 228499.83848435
field stddev 131507.4372399
field min 1500
field max 453864.16583459
field sum 78375444.600133
field sqrsum 23823394901166
statistic Network1.final_Project_1_SinkA "End-to-End Delay"
field count 344
field mean 229158.40465788
field stddev 131882.45394629
field min 1500
field max 455046.60217695
field sum 78830491.202309
field sqrsum 24030462311319
statistic Network1.final_Project_1_SinkA "End-to-End Delay"
field count 345
field mean 229817.0270833
field stddev 132257.61215503
field min 1500
field max 456383.14143021
field sum 79286874.34374
field sqrsum 24238747883101
statistic Network1.final_Project_1_SinkA "End-to-End Delay"
field count 346
field mean 230476.13900052
field stddev 132633.65549958
field min 1500
field max 457869.75043923
field sum 79744744.094179
field sqrsum 24448392591468
statistic Network1.final_Project_1_SinkA "End-to-End Delay"
field count 347
field mean 231135.68028862
field stddev 133010.47594467
field min 1500
field max 459336.96597326
field sum 80204081.060152
field sqrsum 24659383039778
statistic Network1.final_Project_1_SinkA "End-to-End Delay"
field count 348
field mean 231795.7224194
field stddev 133388.19246368
field min 1500
field max 460830.34179981
field sum 80664911.401952
field sqrsum 24871747643701
statistic Network1.final_Project_1_SinkA "End-to-End Delay"
field count 349
[...]
statistic Network1.final_Project_1_SinkC "End-to-End Delay"
field count 1341
field mean 5641688.0460138
field stddev 370679.69614622
field min 5005200
field max 6298791.9930723
field sum 7565503669.7044
field sqrsum 4.2866332221206e+016
statistic Network1.final_Project_1_SinkC "End-to-End Delay"
field count 1342
field mean 5642177.773165
field stddev 370975.51021868
field min 5005200
field max 6298901.8830354
field sum 7571802571.5875
field sqrsum 4.2906008386138e+016
statistic Network1.final_Project_1_SinkC "End-to-End Delay"
field count 1343
field mean 5642667.6345943
field stddev 371271.53215128
field min 5005200
field max 6300061.6726731
field sum 7578102633.2602
field sqrsum 4.2945699163217e+016
statistic Network1.final_Project_1_SinkC "End-to-End Delay"
field count 1344
field mean 5643156.2849108
field stddev 371565.38045157
field min 5005200
field max 6300061.6726731
field sum 7584402046.9201
field sqrsum 4.2985381775676e+016
statistic Network1.final_Project_1_SinkC "End-to-End Delay"
field count 1345
field mean 5643644.250057
field stddev 371857.99177271
field min 5005200
field max 6300061.6726731
field sum 7590701516.3267
field sqrsum 4.3025065090481e+016
statistic Network1.final_Project_1_SinkC "End-to-End Delay"
field count 1346
field mean 5644132.4584523
field stddev 372151.00765912
field min 5005200
field max 6300772.7501497
field sum 7597002289.0768
field sqrsum 4.306476482773e+016
statistic Network1.final_Project_1_SinkC "End-to-End Delay"
field count 1347
field mean 5644620.6906284
field stddev 372444.04009012
field min 5005200
field max 6301781.1995602
field sum 7603304070.2764
field sqrsum 4.3104477274017e+016
statistic Network1.final_Project_1_SinkC "End-to-End Delay"
field count 1348
field mean 5645109.0466014
field stddev 372737.26570234
field min 5005200
field max 6302924.542274
field sum 7609606994.8187
field sqrsum 4.3144204131803e+016
statistic Network1.final_Project_1_SinkC "End-to-End Delay"
field count 1349
field mean 5645597.5812186
field stddev 373030.78116903
field min 5005200
field max 6304142.2452371
field sum 7615911137.0639
field sqrsum 4.3183946341251e+016
statistic Network1.final_Project_1_SinkC "End-to-End Delay"
field count 1350
field mean 5646086.0216552
field stddev 373324.10415515
field min 5005200
field max 6304992.1706672
field sum 7622216129.2346
field sqrsum 4.3223699267523e+016
statistic Network1.final_Project_1_SinkC "End-to-End Delay"
field count 1351
field mean 5646574.48485
field stddev 373617.44156379
field min 5005200
field max 6305999.7977307
field sum 7628522129.0323
field sqrsum 4.3263464900972e+016
statistic Network1.final_Project_1_SinkC "End-to-End Delay"
field count 1352
field mean 5647062.9789108
field stddev 373910.80773229
field min 5005200
field max 6307018.4551157
field sum 7634829147.4874
field sqrsum 4.3303243382765e+016
statistic Network1.final_Project_1_SinkC "End-to-End Delay"
field count 1353
field mean 5647551.163628
field stddev 374203.60193574
field min 5005200
field max 6307576.9012923
field sum 7641136724.3887
field sqrsum 4.3343028909131e+016
statistic Network1.final_Project_1_SinkC "End-to-End Delay"
field count 1354
field mean 5648039.5523788
field stddev 374496.7315119
field min 5005200
field max 6308829.5321473
field sum 7647445553.9209
field sqrsum 4.3382830239197e+016
statistic Network1.final_Project_1_SinkC "End-to-End Delay"
field count 1355
field mean 5648528.2113615
field stddev 374790.31305128
field min 5005200
field max 6310172.4739668
field sum 7653755726.3948
field sqrsum 4.3422648515848e+016
statistic Network1.final_Project_1_SinkC "End-to-End Delay"
field count 1356
field mean 5649016.4467896
field stddev 375083.12067798
field min 5005200
field max 6310575.4518214
field sum 7660066301.8467
field sqrsum 4.3462471878381e+016
statistic Network1.final_Project_1_SinkC "End-to-End Delay"
field count 1357
field mean 5649504.7466144
field stddev 375376.01723336
field min 5005200
field max 6311639.3090882
field sum 7666377941.1557
field sqrsum 4.3502308669149e+016
statistic Network1.final_Project_1_SinkC "End-to-End Delay"
field count 1358
field mean 5649993.2439458
field stddev 375669.23764724
field min 5005200
field max 6312884.1226923
field sum 7672690825.2784
field sqrsum 4.3542161175096e+016
statistic Network1.final_Project_1_SinkC "End-to-End Delay"
field count 1359
field mean 5650482.0117033
field stddev 375962.91039856
field min 5005200
field max 6314228.6263375
field sum 7679005053.9048
field sqrsum 4.3582030658241e+016
statistic Network1.final_Project_1_SinkC "End-to-End Delay"
field count 1360
field mean 5650970.8377154
field stddev 376256.66009752
field min 5005200
field max 6315285.3881597
field sum 7685320339.2929
field sqrsum 4.3621913487775e+016
statistic Network1.final_Project_1_SinkC "End-to-End Delay"
field count 1361
field mean 5651459.9294455
field stddev 376550.85333953
field min 5005200
field max 6316624.6823881
field sum 7691636963.9753
field sqrsum 4.3661813235153e+016
statistic Network1.final_Project_1_SinkC "End-to-End Delay"
field count 1362
field mean 5651948.5554241
field stddev 376844.19696118
field min 5005200
field max 6316968.5123203
field sum 7697953932.4876
field sqrsum 4.3701717326339e+016
statistic Network1.final_Project_1_SinkC "End-to-End Delay"
field count 1363
field mean 5652437.0596639
field stddev 377137.30028104
field min 5005200
field max 6317779.8342611
field sum 7704271712.3219
field sqrsum 4.3741631668373e+016
statistic Network1.final_Project_1_SinkC "End-to-End Delay"
field count 1364
field mean 5652925.9123618
field stddev 377430.99405609
field min 5005200
field max 6319232.139641
field sum 7710590944.4615
field sqrsum 4.3781564363208e+016
statistic Network1.final_Project_1_SinkC "End-to-End Delay"
field count 1365
field mean 5653414.5278331
field stddev 377724.2430351
field min 5005200
field max 6319886.0306653
field sum 7716910830.4922
field sqrsum 4.3821505322649e+016
statistic Network1.final_Project_1_SinkC "End-to-End Delay"
field count 1366
field mean 5653903.5141162
field stddev 378018.12190117
field min 5005200
field max 6321369.7904605
field sum 7723232200.2827
field sqrsum 4.3861465038676e+016
statistic Network1.final_Project_1_SinkC "End-to-End Delay"
field count 1367
field mean 5654392.482979
field stddev 378311.94396085
field min 5005200
field max 6322323.949587
field sum 7729554524.2323
field sqrsum 4.39014368188e+016
statistic Network1.final_Project_1_SinkC "End-to-End Delay"
field count 1368
field mean 5654881.777299
field stddev 378606.31531951
field min 5005200
field max 6323747.1127703
field sum 7735878271.345
field sqrsum 4.3941426596346e+016
statistic Network1.final_Project_1_SinkC "End-to-End Delay"
field count 1369
field mean 5655371.1558244
field stddev 378900.80884013
field min 5005200
field max 6324840.9786078
field sum 7742203112.3236
field sqrsum 4.3981430209751e+016
statistic Network1.final_Project_1_SinkC "End-to-End Delay"
field count 1370
field mean 5655860.5795444
field stddev 379195.35540771
field min 5005200
field max 6325881.652134
field sum 7748528993.9758
field sqrsum 4.4021446988428e+016
statistic Network1.final_Project_1_SinkC "End-to-End Delay"
field count 1371
field mean 5656349.725237
field stddev 379489.38361021
field min 5005200
field max 6326479.3241687
field sum 7754855473.2999
field sqrsum 4.4061471329067e+016
statistic Network1.final_Project_1_SinkC "End-to-End Delay"
field count 1372
field mean 5656838.7059144
field stddev 379783.0942028
field min 5005200
field max 6327231.2146231
field sum 7761182704.5146
field sqrsum 4.410150518391e+016
statistic Network1.final_Project_1_SinkC "End-to-End Delay"
field count 1373
field mean 5657327.8639485
field stddev 380077.09260221
field min 5005200
field max 6328452.6867042
field sum 7767511157.2013
field sqrsum 4.4141554497318e+016
statistic Network1.final_Project_1_SinkC "End-to-End Delay"
field count 1374
field mean 5657816.8969218
field stddev 380370.84411065
field min 5005200
field max 6329259.1693052
field sum 7773840416.3706
field sqrsum 4.418161401895e+016
statistic Network1.final_Project_1_SinkC "End-to-End Delay"
field count 1375
field mean 5658305.4056788
field stddev 380663.64459723
field min 5005200
field max 6329516.4377898
field sum 7780169932.8084
field sqrsum 4.4221676797286e+016
statistic Network1.final_Project_1_SinkC "End-to-End Delay"
field count 1376
field mean 5658793.5036788
field stddev 380955.69659781
field min 5005200
field max 6329928.253699
field sum 7786499861.0621
field sqrsum 4.4261744788983e+016
statistic Network1.final_Project_1_SinkC "End-to-End Delay"
field count 1377
field mean 5659281.9287223
field stddev 381248.30250789
field min 5005200
field max 6331354.7884899
field sum 7792831215.8506
field sqrsum 4.4301830842441e+016
statistic Network1.final_Project_1_SinkC "End-to-End Delay"
field count 1378
field mean 5659770.6294882
field stddev 381541.37128657
field min 5005200
field max 6332711.5841381
field sum 7799163927.4347
field sqrsum 4.4341934078449e+016
statistic Network1.final_Project_1_SinkC "End-to-End Delay"
field count 1379
field mean 5660259.2757801
field stddev 381834.31960047
field min 5005200
field max 6333613.8660461
field sum 7805497541.3007
field sqrsum 4.4382048743053e+016
statistic Network1.final_Project_1_SinkC "End-to-End Delay"
field count 1380
field mean 5660746.6855917
field stddev 382125.06457227
field min 5005200
field max 6333613.8660461
field sum 7811830426.1165
field sqrsum 4.4422154173143e+016
statistic Network1.final_Project_1_SinkC "End-to-End Delay"
field count 1381
field mean 5661234.44842
field stddev 382416.41042702
field min 5005200
field max 6334347.151579
field sum 7818164773.2681
field sqrsum 4.4462278126979e+016
statistic Network1.final_Project_1_SinkC "End-to-End Delay"
field count 1382
field mean 5661722.5496762
field stddev 382708.33099204
field min 5005200
field max 6335790.3844418
field sum 7824500563.6525
field sqrsum 4.4502420366775e+016
statistic Network1.final_Project_1_SinkC "End-to-End Delay"
field count 1383
field mean 5662210.0784089
field stddev 382999.22063102
field min 5005200
field max 6335974.7869279
field sum 7830836538.4394
field sqrsum 4.4542564943276e+016
statistic Network1.final_Project_1_SinkC "End-to-End Delay"
field count 1384
field mean 5662697.160689
field stddev 383289.3038646
field min 5005200
field max 6336331.9541708
field sum 7837172870.3936
field sqrsum 4.4582714045909e+016
statistic Network1.final_Project_1_SinkC "End-to-End Delay"
field count 1385
field mean 5663183.6831278
field stddev 383578.3834755
field min 5005200
field max 6336530.738324
field sum 7843509401.1319
field sqrsum 4.4622865667707e+016
statistic Network1.final_Project_1_SinkC "End-to-End Delay"
field count 1386
field mean 5663668.3195689
field stddev 383864.13841943
field min 5005200
field max 6336530.738324
field sum 7849844290.9226
field sqrsum 4.4662996496366e+016
scalar Network1.SourceA created:last 1221
attr interpolationmode none
attr title "the number of jobs created, last"
scalar Network1.SourceB created:last 2518
attr interpolationmode none
attr title "the number of jobs created, last"
scalar Network1.SourceC created:last 1387
attr interpolationmode none
attr title "the number of jobs created, last"
scalar Network1.passiveQueue queueingTime:mean 814242.04264919
attr interpolationmode none
attr title "queueing time at dequeue, mean"
attr unit s
scalar Network1.passiveQueue queueingTime:max 1628480.0030599
attr interpolationmode none
attr title "queueing time at dequeue, max"
attr unit s
scalar Network1.passiveQueue queueLength:timeavg 129.19434153102
attr interpolationmode sample-hold
attr title "queue length, timeavg"
scalar Network1.passiveQueue queueLength:max 1086
attr interpolationmode sample-hold
attr title "queue length, max"
scalar Network1.passiveQueue dropped:count 0
attr interpolationmode none
attr title "drop event, count"
scalar Network1.passiveQueue1 queueingTime:mean 3317137.5262359
attr interpolationmode none
attr title "queueing time at dequeue, mean"
attr unit s
scalar Network1.passiveQueue1 queueingTime:max 5002500.6782418
attr interpolationmode none
attr title "queueing time at dequeue, max"
attr unit s
scalar Network1.passiveQueue1 queueLength:timeavg 1086.2989063678
attr interpolationmode sample-hold
attr title "queue length, timeavg"
scalar Network1.passiveQueue1 queueLength:max 2518
attr interpolationmode sample-hold
attr title "queue length, max"
scalar Network1.passiveQueue1 dropped:count 0
attr interpolationmode none
attr title "drop event, count"
scalar Network1.passiveQueue2 queueingTime:mean 5662653.2515034
attr interpolationmode none
attr title "queueing time at dequeue, mean"
attr unit s
scalar Network1.passiveQueue2 queueingTime:max 6335030.738324
attr interpolationmode none
attr title "queueing time at dequeue, max"
attr unit s
scalar Network1.passiveQueue2 queueLength:timeavg 1021.4722408421
attr interpolationmode sample-hold
attr title "queue length, timeavg"
scalar Network1.passiveQueue2 queueLength:max 1387
attr interpolationmode sample-hold
attr title "queue length, max"
scalar Network1.passiveQueue2 dropped:count 0
attr interpolationmode none
attr title "drop event, count"
scalar Network1.server busy:timeavg 1
attr interpolationmode sample-hold
attr title "server busy state, timeavg"
scalar Network1.final_Project_1_SinkA generation:mean 0
attr interpolationmode none
attr title "the generation of the arrived jobs, mean"
scalar Network1.final_Project_1_SinkA generation:max 0
attr interpolationmode none
attr title "the generation of the arrived jobs, max"
scalar Network1.final_Project_1_SinkA delaysVisited:mean 0
attr interpolationmode none
attr title "the total number of delays visited by arrived jobs, mean"
scalar Network1.final_Project_1_SinkA delaysVisited:max 0
attr interpolationmode none
attr title "the total number of delays visited by arrived jobs, max"
scalar Network1.final_Project_1_SinkA queuesVisited:mean 1.998361998362
attr interpolationmode none
attr title "the total number of queues visited by arrived jobs, mean"
scalar Network1.final_Project_1_SinkA queuesVisited:max 2
attr interpolationmode none
attr title "the total number of queues visited by arrived jobs, max"
scalar Network1.final_Project_1_SinkA totalServiceTime:mean 1500
attr interpolationmode none
attr title "the total time spent  by arrived jobs, mean"
attr unit s
scalar Network1.final_Project_1_SinkA totalServiceTime:max 1500
attr interpolationmode none
attr title "the total time spent  by arrived jobs, max"
attr unit s
scalar Network1.final_Project_1_SinkA totalDelayTime:mean 0
attr interpolationmode none
attr title "the total time spent in delay nodes by arrived jobs, mean"
attr unit s
scalar Network1.final_Project_1_SinkA totalDelayTime:max 0
attr interpolationmode none
attr title "the total time spent in delay nodes by arrived jobs, max"
attr unit s
scalar Network1.final_Project_1_SinkA totalQueueingTime:mean 813575.1777494
attr interpolationmode none
attr title "the total time spent in queues by arrived jobs, mean"
attr unit s
scalar Network1.final_Project_1_SinkA totalQueueingTime:max 1628480.0030599
attr interpolationmode none
attr title "the total time spent in queues by arrived jobs, max"
attr unit s
scalar Network1.final_Project_1_SinkA lifeTime:mean 815075.1777494
attr interpolationmode none
attr title "lifetime of arrived jobs, mean"
attr unit s
scalar Network1.final_Project_1_SinkA lifeTime:max 1629980.0030599
attr interpolationmode none
attr title "lifetime of arrived jobs, max"
attr unit s
scalar Network1.final_Project_1_SinkB generation:mean 0
attr interpolationmode none
attr title "the generation of the arrived jobs, mean"
scalar Network1.final_Project_1_SinkB generation:max 0
attr interpolationmode none
attr title "the generation of the arrived jobs, max"
scalar Network1.final_Project_1_SinkB delaysVisited:mean 0
attr interpolationmode none
attr title "the total number of delays visited by arrived jobs, mean"
scalar Network1.final_Project_1_SinkB delaysVisited:max 0
attr interpolationmode none
attr title "the total number of delays visited by arrived jobs, max"
scalar Network1.final_Project_1_SinkB queuesVisited:mean 2
attr interpolationmode none
attr title "the total number of queues visited by arrived jobs, mean"
scalar Network1.final_Project_1_SinkB queuesVisited:max 2
attr interpolationmode none
attr title "the total number of queues visited by arrived jobs, max"
scalar Network1.final_Project_1_SinkB totalServiceTime:mean 1500
attr interpolationmode none
attr title "the total time spent  by arrived jobs, mean"
attr unit s
scalar Network1.final_Project_1_SinkB totalServiceTime:max 1500
attr interpolationmode none
attr title "the total time spent  by arrived jobs, max"
attr unit s
scalar Network1.final_Project_1_SinkB totalDelayTime:mean 0
attr interpolationmode none
attr title "the total time spent in delay nodes by arrived jobs, mean"
attr unit s
scalar Network1.final_Project_1_SinkB totalDelayTime:max 0
attr interpolationmode none
attr title "the total time spent in delay nodes by arrived jobs, max"
attr unit s
scalar Network1.final_Project_1_SinkB totalQueueingTime:mean 3317137.5262359
attr interpolationmode none
attr title "the total time spent in queues by arrived jobs, mean"
attr unit s
scalar Network1.final_Project_1_SinkB totalQueueingTime:max 5002500.6782418
attr interpolationmode none
attr title "the total time spent in queues by arrived jobs, max"
attr unit s
scalar Network1.final_Project_1_SinkB lifeTime:mean 3318637.5262359
attr interpolationmode none
attr title "lifetime of arrived jobs, mean"
attr unit s
scalar Network1.final_Project_1_SinkB lifeTime:max 5004000.6782418
attr interpolationmode none
attr title "lifetime of arrived jobs, max"
attr unit s
scalar Network1.final_Project_1_SinkC generation:mean 0
attr interpolationmode none
attr title "the generation of the arrived jobs, mean"
scalar Network1.final_Project_1_SinkC generation:max 0
attr interpolationmode none
attr title "the generation of the arrived jobs, max"
scalar Network1.final_Project_1_SinkC delaysVisited:mean 0
attr interpolationmode none
attr title "the total number of delays visited by arrived jobs, mean"
scalar Network1.final_Project_1_SinkC delaysVisited:max 0
attr interpolationmode none
attr title "the total number of delays visited by arrived jobs, max"
scalar Network1.final_Project_1_SinkC queuesVisited:mean 2
attr interpolationmode none
attr title "the total number of queues visited by arrived jobs, mean"
scalar Network1.final_Project_1_SinkC queuesVisited:max 2
attr interpolationmode none
attr title "the total number of queues visited by arrived jobs, max"
scalar Network1.final_Project_1_SinkC totalServiceTime:mean 1500
attr interpolationmode none
attr title "the total time spent  by arrived jobs, mean"
attr unit s
scalar Network1.final_Project_1_SinkC totalServiceTime:max 1500
attr interpolationmode none
attr title "the total time spent  by arrived jobs, max"
attr unit s
scalar Network1.final_Project_1_SinkC totalDelayTime:mean 0
attr interpolationmode none
attr title "the total time spent in delay nodes by arrived jobs, mean"
attr unit s
scalar Network1.final_Project_1_SinkC totalDelayTime:max 0
attr interpolationmode none
attr title "the total time spent in delay nodes by arrived jobs, max"
attr unit s
scalar Network1.final_Project_1_SinkC totalQueueingTime:mean 5662653.2515034
attr interpolationmode none
attr title "the total time spent in queues by arrived jobs, mean"
attr unit s
scalar Network1.final_Project_1_SinkC totalQueueingTime:max 6335030.738324
attr interpolationmode none
attr title "the total time spent in queues by arrived jobs, max"
attr unit s
scalar Network1.final_Project_1_SinkC lifeTime:mean 5664153.2515034
attr interpolationmode none
attr title "lifetime of arrived jobs, mean"
attr unit s
scalar Network1.final_Project_1_SinkC lifeTime:max 6336530.738324
attr interpolationmode none
attr title "lifetime of arrived jobs, max"
attr unit s

