version 2
run General-0-20210517-18:15:22-2128
attr configname General
attr datetime 20210517-18:15:22
attr experiment General
attr inifile Final_Project1.ini
attr iterationvars ""
attr iterationvarsf ""
attr measurement ""
attr network Network1
attr processid 2128
attr repetition 0
attr replication #0
attr resultdir results
attr runnumber 0
attr seedset 245
param **.SourceA.interArrivalTime exponential(163.9s)
param **.SourceB.interArrivalTime exponential(159.7s)
param **.SourceC.interArrivalTime exponential(555.6s)
param **.SourceA.startTime 0s
param **.SourceA.stopTime 201599s
param **.SourceB.startTime 201600s
param **.SourceB.stopTime 604799s
param **.SourceC.startTime 604800s
param **.SourceC.stopTime 1353599s
param **.server.serviceTime 1500s
param **.SourceA.jobType 0
param **.SourceB.jobType 1
param **.SourceC.jobType 2

vector 0 Network1.passiveQueue queueLength:vector ETV
attr interpolationmode sample-hold
attr title "queue length, vector"
vector 1 Network1.passiveQueue1 queueLength:vector ETV
attr interpolationmode sample-hold
attr title "queue length, vector"
vector 2 Network1.passiveQueue2 queueLength:vector ETV
attr interpolationmode sample-hold
attr title "queue length, vector"
vector 3 Network1.final_Project_1_SinkA lifeTime:vector ETV
attr interpolationmode none
attr title "lifetime of arrived jobs, vector"
attr unit s
vector 4 Network1.final_Project_1_SinkB lifeTime:vector ETV
attr interpolationmode none
attr title "lifetime of arrived jobs, vector"
attr unit s
vector 5 Network1.final_Project_1_SinkC lifeTime:vector ETV
attr interpolationmode none
attr title "lifetime of arrived jobs, vector"
attr unit s
0	0	0	0
0	5	132.68367582523	1
0	7	192.133998635158	2
0	9	208.662718772559	3
0	11	567.761654248691	4
0	13	622.120344627959	5
0	15	1050.248395929752	6
0	17	1077.877748750985	7
0	19	1357.297142186618	8
0	20	1500	7
0	25	1514.508614005294	8
0	27	1564.934683303095	9
0	29	1872.390331452547	10
0	31	2012.692138451185	11
0	33	2248.186981096061	12
0	35	2565.091307582578	13
0	37	2657.832732521653	14
0	39	2666.419421836238	15
0	41	2703.0113379367	16
0	43	2952.121935259602	17
0	45	2970.897369875694	18
0	46	3000	17
0	51	3083.221405549193	18
0	53	3605.208896148263	19
0	55	3606.152554769519	20
0	57	3652.194717943745	21
0	59	3868.489672478919	22
0	61	3924.456015254324	23
0	63	3970.79015168233	24
0	65	4028.892628105281	25
0	67	4324.485397242959	26
0	68	4500	25
0	73	4580.600466927207	26
0	75	4676.750355139584	27
0	77	4746.250222226065	28
0	79	4782.338390398288	29
0	81	4933.099967102858	30
0	83	5009.926463101474	31
0	85	5701.006581247446	32
0	87	5874.183626859724	33
0	89	5959.36434574387	34
0	90	6000	33
0	95	6160.918466921851	34
0	97	6553.867017010332	35
0	99	6633.639128511166	36
0	101	7397.268970379731	37
0	102	7500	36
0	107	7630.48656937491	37
0	109	7660.551929863002	38
0	111	7739.035144548226	39
0	113	7813.623965593919	40
0	115	7856.106652810337	41
0	117	8178.80257131281	42
0	119	8298.361416232972	43
0	121	8370.932778624842	44
0	123	8401.089742674758	45
0	125	8439.308663004926	46
0	127	8472.043787036255	47
0	129	8484.056102283615	48
0	131	8484.253254878446	49
0	133	8551.553407129368	50
0	134	9000	49
0	139	9043.013294046557	50
0	141	9147.341678627866	51
0	143	9284.571348250602	52
0	145	9534.850109981014	53
0	147	9654.017911806642	54
0	149	9820.029227444611	55
0	151	9935.480242742755	56
0	153	9988.95502328503	57
0	155	10324.000826627674	58
0	157	10326.216999995782	59
0	159	10345.934536861677	60
0	161	10349.235020743449	61
0	163	10419.520006461579	62
0	164	10500	61
0	169	10758.787884972724	62
0	171	10760.200466285517	63
0	173	10789.377609717882	64
0	175	11172.996644811648	65
0	177	11386.493322325365	66
0	179	11408.123422628976	67
0	181	11806.924821162427	68
0	182	12000	67
0	187	12968.665909404475	68
0	188	13500	67
0	193	13996.201958851179	68
0	195	14616.087999001856	69
0	197	14807.859430992004	70
0	199	14887.365516249449	71
0	200	15000	70
0	205	15003.542155215767	71
0	207	15243.457625803351	72
0	209	15767.419651030784	73
0	211	15842.581552849812	74
0	213	15886.2744117367	75
0	215	16362.211851406696	76
0	216	16500	75
0	221	16566.320272419939	76
0	223	16683.763848011411	77
0	225	16836.276857048581	78
0	227	16863.867760088266	79
0	229	16865.550314660307	80
0	231	16899.268280055208	81
0	233	16910.419372870021	82
0	235	17360.751229605235	83
0	237	17530.149698045369	84
0	239	17546.326133487277	85
0	241	17732.324160565575	86
0	243	17789.177132288423	87
0	245	17844.53266944076	88
0	247	17849.175382757901	89
0	248	18000	88
0	253	18051.84732006533	89
0	255	18061.841408009829	90
0	257	18072.366205040961	91
0	259	18532.299685557746	92
0	261	18959.592572321124	93
0	263	18981.315812683473	94
0	265	19126.535137558196	95
0	267	19248.334980233186	96
0	269	19391.998419745414	97
0	270	19500	96
0	275	19789.51532305826	97
0	277	19960.162681578855	98
0	279	20054.117842747077	99
0	281	20235.629189665373	100
0	283	20427.447088290142	101
0	285	20458.076325422268	102
0	287	20713.710556210745	103
0	289	20732.056163233926	104
0	291	20827.078663327769	105
0	292	21000	104
0	297	21091.696216166052	105
0	299	21116.523605145501	106
0	301	21119.379563066215	107
0	303	21133.353563529684	108
0	305	21138.47030329165	109
0	307	21217.598268914024	110
0	309	21443.768766781743	111
0	311	21497.320613386918	112
0	313	21767.188197044656	113
0	315	22349.603161966851	114
0	317	22469.367061618022	115
0	318	22500	114
0	323	22783.969665648658	115
0	325	22879.714380378006	116
0	327	23028.597775662797	117
0	329	23452.845326073738	118
0	331	23518.398932429311	119
0	333	23595.667675074606	120
0	335	23599.135056568919	121
0	336	24000	120
0	341	24084.624041231083	121
0	343	24466.457744923579	122
0	345	24702.19472406616	123
0	347	24847.862658493956	124
0	349	24929.611191443856	125
0	351	24991.056853054102	126
0	353	25087.507493603175	127
0	355	25381.511870232671	128
0	357	25408.276648147438	129
0	358	25500	128
0	363	25583.807456326541	129
0	365	25862.378289719262	130
0	367	25956.75044640725	131
0	369	25962.609364498257	132
0	371	26280.564351503728	133
0	373	26280.827802877829	134
0	375	26429.923636748194	135
0	377	26632.893967864406	136
0	379	26747.589022206674	137
0	380	27000	136
0	385	27074.765915925857	137
0	387	27137.957615451395	138
0	389	27323.349486550529	139
0	391	27413.777279988675	140
0	393	27433.184291140164	141
0	395	27468.536253822602	142
0	397	27530.262936984673	143
0	399	27597.519458054942	144
0	401	27747.306047531855	145
0	403	27773.326030418477	146
0	405	28013.573984186336	147
0	407	28027.811798275721	148
0	409	28149.450990903481	149
0	411	28155.483684735683	150
0	413	28198.365373956419	151
0	414	28500	150
0	419	28505.726311287031	151
0	421	28561.754241503423	152
0	423	28625.173015875566	153
0	425	28831.841014893533	154
0	427	29037.164360020173	155
0	429	29176.184735715286	156
0	431	29396.895587014467	157
0	433	29582.582551801623	158
0	435	29652.318297675505	159
0	436	30000	158
0	441	30184.342217137505	159
0	443	30404.642017113676	160
0	445	30502.55316282908	161
0	447	30753.363126292366	162
0	449	30846.226586705643	163
0	450	31500	162
0	455	31549.818783248679	163
0	457	31655.631273969196	164
0	459	31659.176826321645	165
0	461	31679.926663593427	166
0	463	31702.437653316583	167
0	465	31770.22599812399	168
0	467	32115.742678385099	169
0	469	32133.721001565286	170
0	471	32248.41750086172	171
0	473	32384.614400431142	172
0	475	32726.085696373968	173
0	477	32740.413381200409	174
0	479	32855.853511234087	175
0	480	33000	174
0	485	33030.797411973071	175
0	487	33197.712605238145	176
0	489	34331.789049154995	177
0	491	34485.611863793794	178
0	492	34500	177
0	497	34719.282359099629	178
0	499	34788.736385736984	179
0	501	35298.147991865158	180
0	503	35466.783843153861	181
0	505	35556.39981980444	182
0	507	35619.345242484098	183
0	509	35804.094567308167	184
0	511	35934.710687499681	185
0	512	36000	184
0	517	36064.067522357605	185
0	519	36150.934682496892	186
0	521	36212.807354689879	187
0	523	36293.507658407278	188
0	525	36310.644761131779	189
0	527	36445.040639156798	190
0	529	36477.807533154867	191
0	531	36599.151861496236	192
0	533	36788.274843122465	193
0	535	37182.149776537149	194
0	537	37442.420054132035	195
0	538	37500	194
0	543	37550.986895215072	195
0	545	37628.968068259846	196
0	547	37798.337012531245	197
0	549	37810.467448890766	198
0	551	37883.281074802715	199
0	553	38157.37200381257	200
0	555	38290.241356185358	201
0	557	38293.096909674163	202
0	559	38576.620822203643	203
0	561	38679.935217451447	204
0	563	38684.976750810118	205
0	565	38808.013105270615	206
0	567	38858.080962295895	207
0	568	39000	206
0	573	39128.622969859184	207
0	575	39168.990991825037	208
0	577	39818.877549145517	209
0	579	39833.709422961018	210
0	580	40500	209
0	585	40509.325388316371	210
0	587	40569.82427598334	211
0	589	40584.38793906406	212
0	591	40613.534408010209	213
0	593	40759.966585268962	214
0	595	40892.762253559828	215
0	597	40984.781934365038	216
0	598	42000	215
0	603	42035.641151868949	216
0	605	42214.223087250747	217
0	607	42342.502600568364	218
0	609	42490.367109036485	219
0	611	42551.322900306695	220
0	613	42567.06728248077	221
0	615	42594.562751637489	222
0	617	42773.836924261498	223
0	619	42943.094812735497	224
0	621	43095.772352795503	225
0	623	43097.651765834726	226
0	624	43500	225
0	629	43738.723531662548	226
0	631	44043.855193904373	227
0	633	44176.093412730092	228
0	635	44418.729312881619	229
0	637	44439.697707497901	230
0	639	44730.660222648133	231
0	641	44760.040368766032	232
0	643	44914.924970574135	233
0	644	45000	232
0	649	45098.327112007956	233
0	651	45275.110062927779	234
0	653	45552.640229375531	235
0	655	45784.667485040449	236
0	657	45957.914364435926	237
0	659	46130.459509899263	238
0	661	46166.185187686105	239
0	663	46191.056429454587	240
0	665	46325.250356571275	241
0	666	46500	240
0	671	46729.426551475465	241
0	673	47006.782973694767	242
0	675	47009.928825900948	243
0	677	47074.506350592927	244
0	679	47237.759214163822	245
0	681	47583.133983810297	246
0	683	47970.677355711228	247
0	685	47979.742944926385	248
0	686	48000	247
0	691	48174.69019682991	248
0	693	48188.998834333171	249
0	695	48692.732856631694	250
0	697	48773.103633282508	251
0	699	48862.153757842343	252
0	701	49466.409503210473	253
0	702	49500	252
0	707	49826.049221270874	253
0	709	49997.508117104633	254
0	711	50037.843505789769	255
0	713	50311.550247110307	256
0	715	50318.044287539766	257
0	717	50557.660240659215	258
0	719	50721.887649151394	259
0	721	50826.211002700456	260
0	722	51000	259
0	727	51290.203306735711	260
0	729	51491.484166676551	261
0	731	51506.258354527355	262
0	733	51930.460350430551	263
0	735	52186.324962043583	264
0	737	52210.003481533714	265
0	738	52500	264
0	743	52614.974680570115	265
0	745	52701.405662320035	266
0	747	52882.374608449638	267
0	749	52957.471383461809	268
0	751	53102.136723205379	269
0	753	53192.376342124864	270
0	755	53412.088811665293	271
0	757	53637.686128477386	272
0	759	53803.707450071481	273
0	760	54000	272
0	765	54066.087508907125	273
0	767	54070.209763983441	274
0	769	54470.020612515486	275
0	771	54470.487660527306	276
0	773	54702.137255749656	277
0	775	54796.686781206497	278
0	777	55060.852094492606	279
0	779	55082.532076886283	280
0	781	55135.17960842596	281
0	783	55200.281144081655	282
0	785	55355.372419815995	283
0	786	55500	282
0	791	55528.947418331955	283
0	793	55913.36050899288	284
0	795	56261.130921518663	285
0	797	56734.471390979632	286
0	799	56759.509522100609	287
0	801	56794.929755379514	288
0	803	56928.086957375491	289
0	804	57000	288
0	809	57021.102270051509	289
0	811	57070.977715464915	290
0	813	57144.090400570352	291
0	815	57865.93834843112	292
0	817	57977.849514364875	293
0	819	58067.738281345196	294
0	820	58500	293
0	825	58726.302897453554	294
0	827	58989.867342343657	295
0	829	59078.057583482931	296
0	831	59130.703579048654	297
0	833	59325.913363876013	298
0	835	59499.329443125046	299
0	837	59771.856155790958	300
0	839	59875.887368735114	301
0	840	60000	300
0	845	60185.851969930605	301
0	847	60635.834165407834	302
0	849	60953.397823045038	303
0	851	61116.858569786091	304
0	853	61130.249560765412	305
0	855	61163.034026737937	306
0	857	61169.658200192809	307
0	859	61193.823696288591	308
0	861	61481.145392329979	309
0	862	61500	308
0	867	61729.52956257688	309
0	869	61982.93056287112	310
0	871	62397.650515453255	311
0	873	62602.712839661937	312
0	875	62603.126266775078	313
0	877	62874.334207670664	314
0	879	62965.289947905322	315
0	880	63000	314
0	885	63393.698019078612	315
0	887	63542.806201811945	316
0	889	63790.711499131398	317
0	891	63956.18094775416	318
0	893	64340.263846312574	319
0	895	64472.032281002475	320
0	896	64500	319
0	901	64629.81736150728	320
0	903	64822.146848301744	321
0	905	64864.885441538792	322
0	907	64877.041070886848	323
0	909	64938.152422933848	324
0	911	65204.091518177334	325
0	913	65245.692272718805	326
0	915	65325.450593641998	327
0	917	65347.136293093338	328
0	919	65708.894004309582	329
0	920	66000	328
0	925	66359.741436243277	329
0	927	66454.818214382773	330
0	929	67125.851899055472	331
0	931	67489.855707652772	332
0	932	67500	331
0	937	67585.007955850571	332
0	939	67934.602972308298	333
0	941	68058.658258469352	334
0	943	68070.33407451024	335
0	945	68205.333307894209	336
0	947	68806.496765217643	337
0	949	68862.773743939949	338
0	950	69000	337
0	955	69223.329218927706	338
0	957	69262.076260730703	339
0	959	69583.987799748436	340
0	961	69617.01163230375	341
0	963	69866.11860818659	342
0	965	70064.22934854331	343
0	967	70144.499972724966	344
0	969	70313.007473592468	345
0	970	70500	344
0	975	70532.476379495187	345
0	977	70550.022889724943	346
0	979	70883.435463502771	347
0	981	71033.321381882912	348
0	983	71119.749989053629	349
0	985	71444.639157753387	350
0	987	71534.918957159662	351
0	989	71686.789924259219	352
0	991	71813.541946190832	353
0	993	71847.854303782998	354
0	995	71904.185645107186	355
0	996	72000	354
0	1001	72002.742806706593	355
0	1003	72046.135290111361	356
0	1005	72070.021174597721	357
0	1007	72151.907703093523	358
0	1009	72385.581285057188	359
0	1011	72404.483092203666	360
0	1013	72587.44358123068	361
0	1015	72898.913524347156	362
0	1017	72989.667854906472	363
0	1019	73093.447984612409	364
0	1021	73253.515425694265	365
0	1023	73258.678389590957	366
0	1024	73500	365
0	1029	73630.058877338259	366
0	1031	73734.529836386975	367
0	1033	73929.635622160865	368
0	1035	73931.950053759625	369
0	1037	74046.326028117182	370
0	1039	74486.904120183526	371
0	1041	74686.965553324862	372
0	1042	75000	371
0	1047	75013.24837034585	372
0	1049	75130.828975778462	373
0	1051	75262.734837715138	374
0	1053	75502.4486649899	375
0	1055	75702.651839593944	376
0	1057	75723.113750597406	377
0	1059	75750.562465120612	378
0	1061	75778.708832654674	379
0	1063	75781.384583383477	380
0	1065	75871.163765095185	381
0	1067	75992.140050892673	382
0	1069	76172.113641919152	383
0	1071	76221.379113211057	384
0	1073	76288.971607747566	385
0	1074	76500	384
0	1079	76708.284914229469	385
0	1081	76893.05787631413	386
0	1083	77068.847224642014	387
0	1085	77142.552848711622	388
0	1087	77196.84749249989	389
0	1089	77216.796025136574	390
0	1091	77405.150391183295	391
0	1093	77417.693304332248	392
0	1095	77419.727538744647	393
0	1097	77807.512049552978	394
0	1099	77867.652016490995	395
0	1101	77892.075352772231	396
0	1102	78000	395
0	1107	78047.322211219161	396
0	1109	78163.728225574118	397
0	1111	78289.267161786644	398
0	1113	78333.51392189953	399
0	1115	78380.175740025731	400
0	1117	78401.576928692552	401
0	1119	78447.120441458443	402
0	1121	78746.208293604995	403
0	1123	78774.51665064517	404
0	1125	78877.122558003964	405
0	1127	79134.122390233003	406
0	1129	79166.636816660237	407
0	1131	79443.193434480814	408
0	1133	79443.678793376279	409
0	1134	79500	408
0	1139	79700.512905690975	409
0	1141	79894.856801299561	410
0	1143	80073.666801715619	411
0	1145	80153.811659643063	412
0	1147	80256.351215892852	413
0	1149	80452.768109078101	414
0	1151	80466.918148982024	415
0	1153	80481.032874921217	416
0	1155	80630.703287759436	417
0	1157	80755.130529332116	418
0	1158	81000	417
0	1163	81371.791106551919	418
0	1165	81378.982129497441	419
0	1167	81573.051691287532	420
0	1169	81599.486100013644	421
0	1171	81683.880894800885	422
0	1173	81857.855833950097	423
0	1175	81993.057833590995	424
0	1176	82500	423
0	1181	82540.520205072697	424
0	1183	82594.224163458854	425
0	1185	82602.872987384551	426
0	1187	82793.662507083369	427
0	1189	82837.623963834045	428
0	1191	82992.756317442885	429
0	1193	83011.446095011075	430
0	1195	83036.92710424107	431
0	1197	83136.662142917207	432
0	1199	83266.733547249151	433
0	1201	83339.670216098817	434
0	1203	83601.074372905605	435
0	1205	83799.948048912075	436
0	1207	83819.238751503847	437
0	1209	83938.642394767776	438
0	1210	84000	437
0	1215	84171.391598780669	438
0	1217	84435.39225606726	439
0	1219	84463.640209180652	440
0	1221	84486.111342322822	441
0	1223	84542.4118542944	442
0	1225	84552.129433667674	443
0	1227	84570.634961891133	444
0	1229	84587.820230821274	445
0	1231	84970.727091491552	446
0	1233	84992.787037351963	447
0	1235	85123.620289921823	448
0	1237	85156.488335985376	449
0	1239	85165.305876750911	450
0	1241	85206.869079606778	451
0	1243	85238.349745726635	452
0	1245	85240.262727125049	453
0	1247	85273.003428879993	454
0	1249	85321.0291293318	455
0	1251	85450.346687105289	456
0	1253	85480.57209981908	457
0	1254	85500	456
0	1259	85780.669916023323	457
0	1261	85989.936473645739	458
0	1263	86122.466070378622	459
0	1265	86500.982056607949	460
0	1267	86569.082163128291	461
0	1268	87000	460
0	1273	87008.604280468468	461
0	1275	87444.627253313398	462
0	1277	87860.674147386274	463
0	1279	87899.136080899236	464
0	1281	87914.464932925975	465
0	1283	87974.579418533292	466
0	1285	88359.069713042506	467
0	1286	88500	466
0	1291	88562.629419553528	467
0	1293	89061.589269548182	468
0	1295	89482.351276600564	469
0	1297	89549.118492705436	470
0	1299	89660.42763354939	471
0	1301	89747.197286236623	472
0	1303	89957.17888419518	473
0	1305	89984.677540175487	474
0	1306	90000	473
0	1311	90249.725627835392	474
0	1313	90422.192679400638	475
0	1315	90542.767250528453	476
0	1317	90644.910476233756	477
0	1319	90860.47708088383	478
0	1321	90906.365366460466	479
0	1323	90945.891325431027	480
0	1325	91035.012916185752	481
0	1327	91073.387449949581	482
0	1329	91123.628372637314	483
0	1331	91167.707649203542	484
0	1333	91362.813467855215	485
0	1335	91379.783525154425	486
0	1336	91500	485
0	1341	91961.759801063249	486
0	1343	92007.348610586991	487
0	1345	92027.433992958776	488
0	1347	92085.302479254098	489
0	1349	92280.213712964182	490
0	1351	92393.616350479477	491
0	1353	92408.301758943118	492
0	1355	92620.272512844537	493
0	1357	92735.679639318222	494
0	1359	92789.671035369244	495
0	1360	93000	494
0	1365	93086.798631369063	495
0	1367	93161.039163143108	496
0	1369	93166.224900063467	497
0	1371	93322.669056714612	498
0	1373	93400.963736871728	499
0	1375	93806.870161025081	500
0	1377	93898.099416667609	501
0	1379	93967.063676836733	502
0	1380	94500	501
0	1385	94552.526644830544	502
0	1387	94612.635216788947	503
0	1389	94673.794833708774	504
0	1391	94837.913117925053	505
0	1393	94864.441794520566	506
0	1395	95072.109798439722	507
0	1397	95211.866335817587	508
0	1399	95222.471853855498	509
0	1401	95589.230391154897	510
0	1403	95754.994436862287	511
0	1405	95929.373259703646	512
0	1406	96000	511
0	1411	96119.487783307883	512
0	1413	96167.923781463745	513
0	1415	96194.150508373527	514
0	1417	96417.377688287357	515
0	1419	96421.975946980959	516
0	1421	96425.157729652176	517
0	1423	96789.454411507607	518
0	1425	96863.926426518467	519
0	1427	96930.574162132424	520
0	1429	97018.891198913765	521
0	1431	97350.558388538321	522
0	1432	97500	521
0	1437	97502.504413369417	522
0	1439	97518.193234944111	523
0	1441	97589.737939174421	524
0	1443	97693.786257557412	525
0	1445	97747.865686117055	526
0	1447	97793.343685849326	527
0	1449	97886.768294298657	528
0	1451	97959.90092364992	529
0	1453	98077.959281142484	530
0	1455	98080.152693348513	531
0	1457	98200.975609746729	532
0	1459	98256.030756369103	533
0	1461	98657.172635105073	534
0	1463	98684.275894287317	535
0	1465	98874.632148590598	536
0	1466	99000	535
0	1471	99048.653745132676	536
0	1473	99073.450490193882	537
0	1475	99333.586196800033	538
0	1477	99363.160930985538	539
0	1479	99377.389681242255	540
0	1481	99710.474537146128	541
0	1483	99739.586912772116	542
0	1485	99778.868143283373	543
0	1487	99879.882729927265	544
0	1489	100145.288794942181	545
0	1491	100339.758167157103	546
0	1493	100413.576446128948	547
0	1494	100500	546
0	1499	100558.74156434261	547
0	1501	100730.088220675197	548
0	1503	100744.499721188154	549
0	1505	100839.487420043244	550
0	1507	100908.069913908019	551
0	1509	101527.805360592029	552
0	1511	101992.073974591493	553
0	1512	102000	552
0	1517	102203.159332942135	553
0	1519	102399.819403408716	554
0	1521	102698.153010339241	555
0	1523	102836.265123907056	556
0	1525	102969.10489211202	557
0	1527	103049.082241392993	558
0	1529	103289.320737693079	559
0	1531	103452.472403239606	560
0	1532	103500	559
0	1537	103545.767407217121	560
0	1539	103677.614475216184	561
0	1541	103966.019610948475	562
0	1543	104037.019374106567	563
0	1545	104072.259413694121	564
0	1547	104092.908135855168	565
0	1549	104357.329225654821	566
0	1551	104598.638290327034	567
0	1553	104718.596564763739	568
0	1554	105000	567
0	1559	105351.58424903845	568
0	1561	105442.484207236344	569
0	1563	105495.439385195419	570
0	1565	105533.827913485579	571
0	1567	105555.863312107056	572
0	1569	105571.438289620226	573
0	1571	105838.884463087781	574
0	1573	106153.819165681271	575
0	1575	106226.590959201299	576
0	1577	106245.05911419885	577
0	1579	106309.057947603187	578
0	1581	106390.644998350458	579
0	1583	106418.694896478804	580
0	1584	106500	579
0	1589	106512.162345842096	580
0	1591	106531.065986323113	581
0	1593	106679.547985549091	582
0	1595	107115.490823844329	583
0	1597	107266.799677810598	584
0	1599	107452.781462025107	585
0	1601	107459.975564512641	586
0	1603	107508.044679878159	587
0	1605	107695.415926645362	588
0	1607	107702.223824345913	589
0	1609	107741.632074511045	590
0	1611	107748.224662007195	591
0	1612	108000	590
0	1617	108180.256876578382	591
0	1619	108560.720030405417	592
0	1621	108595.374463757309	593
0	1623	108634.841930241021	594
0	1625	108640.272555293179	595
0	1627	109033.506326933977	596
0	1629	109263.173280386725	597
0	1630	109500	596
0	1635	109978.38400131468	597
0	1637	110113.834525539291	598
0	1639	110300.294492732863	599
0	1641	110383.342025147701	600
0	1643	110734.423134976155	601
0	1645	110863.998518435492	602
0	1646	111000	601
0	1651	111127.080808444003	602
0	1653	111158.582150176881	603
0	1655	111426.00896161771	604
0	1657	111451.438120471495	605
0	1659	111837.043880442404	606
0	1661	111962.570343340921	607
0	1663	111973.124622462606	608
0	1665	112116.120017954363	609
0	1667	112140.738265071591	610
0	1668	112500	609
0	1673	112706.912045895384	610
0	1675	112769.029901337404	611
0	1677	113176.214502262863	612
0	1679	113183.642588932503	613
0	1681	113549.246782385855	614
0	1683	113593.261262947144	615
0	1685	113621.420526436393	616
0	1687	113723.413371170595	617
0	1688	114000	616
0	1693	114622.257717302395	617
0	1695	114634.407298096133	618
0	1697	114753.05832931227	619
0	1699	114877.618295814422	620
0	1701	115359.30719482002	621
0	1703	115461.005355606225	622
0	1704	115500	621
0	1709	115534.818942405287	622
0	1711	115768.408679392388	623
0	1713	115883.15521682669	624
0	1715	116015.578828652274	625
0	1717	116114.213231578358	626
0	1719	116244.381287146708	627
0	1721	116447.003890403056	628
0	1723	116451.838980930647	629
0	1725	116684.47584423272	630
0	1727	116731.845236797997	631
0	1729	116807.330750808325	632
0	1731	116950.126740409497	633
0	1732	117000	632
0	1737	117551.067620897795	633
0	1739	117597.651262316201	634
0	1741	117663.65334763056	635
0	1743	118033.959213847705	636
0	1745	118177.958937208266	637
0	1747	118297.783231159645	638
0	1749	118307.397028130238	639
0	1751	118407.361999342995	640
0	1753	118414.638206789818	641
0	1754	118500	640
0	1759	118559.045242930254	641
0	1761	118744.301608747575	642
0	1763	118773.241280144469	643
0	1765	119019.771675210966	644
0	1767	119024.39276193469	645
0	1769	119108.384829991152	646
0	1771	119233.608617421954	647
0	1773	119435.297446366167	648
0	1775	119509.453892365522	649
0	1777	119658.585322324239	650
0	1779	119931.452622721341	651
0	1781	119949.123965449435	652
0	1782	120000	651
0	1787	120009.953772653854	652
0	1789	120133.080487275377	653
0	1791	120167.454239069891	654
0	1793	120221.01275714461	655
0	1795	120287.798193363469	656
0	1797	120375.271210831575	657
0	1799	120656.2152364619	658
0	1801	120660.642253567664	659
0	1803	120743.252060582142	660
0	1805	120816.267679436686	661
0	1807	121058.577736076465	662
0	1809	121072.870137765259	663
0	1811	121191.46078429879	664
0	1813	121305.408443111749	665
0	1814	121500	664
0	1819	121559.604247423369	665
0	1821	121657.238019548556	666
0	1823	121817.829174557037	667
0	1825	122293.729745395044	668
0	1827	122378.297900614805	669
0	1829	122444.953600471248	670
0	1831	122722.483155642982	671
0	1833	122884.320257214092	672
0	1834	123000	671
0	1839	123083.392124967264	672
0	1841	123178.478832856172	673
0	1843	123251.586299657113	674
0	1845	123259.692100706338	675
0	1847	123294.92997021757	676
0	1849	123378.005657487731	677
0	1851	123483.984822459547	678
0	1853	123789.024934549592	679
0	1855	123840.918255143872	680
0	1857	123866.589533592267	681
0	1859	124240.181439735507	682
0	1861	124342.315767210982	683
0	1863	124466.596008644784	684
0	1864	124500	683
0	1869	124591.385615037966	684
0	1871	124630.070720523529	685
0	1873	124894.620657562293	686
0	1875	125020.632574304801	687
0	1877	125152.831221415073	688
0	1879	125300.464733071344	689
0	1881	125474.22533640065	690
0	1883	125722.501607849133	691
0	1885	125820.824168433965	692
0	1887	125856.784698030788	693
0	1889	125867.590316479832	694
0	1890	126000	693
0	1895	126019.072511611183	694
0	1897	126662.637699522966	695
0	1899	126677.23911234932	696
0	1901	126910.515923907083	697
0	1903	127134.635139446746	698
0	1905	127148.564785715192	699
0	1906	127500	698
0	1911	127688.457621225501	699
0	1913	127800.656008385888	700
0	1915	127876.93806230145	701
0	1917	127897.574511452511	702
0	1919	128305.101723588275	703
0	1921	128340.298501445958	704
0	1923	128402.020325736219	705
0	1925	128599.529384431601	706
0	1926	129000	705
0	1931	129361.382891626362	706
0	1933	129547.792413739538	707
0	1935	129574.041577361383	708
0	1937	129599.701257471178	709
0	1939	130131.087429452646	710
0	1941	130147.70658598198	711
0	1942	130500	710
0	1947	130505.952464267918	711
0	1949	130658.463288929819	712
0	1951	130849.885642213303	713
0	1953	131026.468429127509	714
0	1955	131101.109391233957	715
0	1957	131170.214144661535	716
0	1959	131181.647761730997	717
0	1961	131380.749887512787	718
0	1963	131488.240851207669	719
0	1965	131995.522978877043	720
0	1966	132000	719
0	1971	132130.616337940372	720
0	1973	132232.976575304284	721
0	1975	132282.397224295131	722
0	1977	132825.915471022544	723
0	1979	132956.464152769742	724
0	1981	133056.438266896229	725
0	1983	133113.273834223748	726
0	1985	133329.735357053148	727
0	1986	133500	726
0	1991	133938.18936909995	727
0	1993	134046.808119352274	728
0	1995	134087.981991352709	729
0	1997	134219.684634477592	730
0	1999	134247.813789365533	731
0	2001	134569.746559495139	732
0	2002	135000	731
0	2007	135103.506772540948	732
0	2009	135230.594663392115	733
0	2011	135351.36726262963	734
0	2013	135522.007627765485	735
0	2015	135546.599689384581	736
0	2017	135548.29111551993	737
0	2019	135570.365026177642	738
0	2021	135672.556868268135	739
0	2023	135714.790332183929	740
0	2025	135777.211954149505	741
0	2027	135896.345242480778	742
0	2029	136178.048345187145	743
0	2031	136178.454961681953	744
0	2033	136241.639076062846	745
0	2035	136411.535570644065	746
0	2036	136500	745
0	2041	136605.789024111978	746
0	2043	136644.391455379952	747
0	2045	136751.055154246392	748
0	2047	136831.66116795012	749
0	2049	136902.056393765557	750
0	2051	137663.48881300899	751
0	2052	138000	750
0	2057	138197.442072855461	751
0	2059	138342.524097284904	752
0	2061	138359.323097167616	753
0	2063	138571.287976381786	754
0	2065	138575.384922916807	755
0	2067	138718.362770441196	756
0	2069	139037.280923076612	757
0	2071	139147.150890242294	758
0	2073	139342.469370945009	759
0	2074	139500	758
0	2079	139571.35543331004	759
0	2081	139575.718115887387	760
0	2083	139995.593839953519	761
0	2085	140121.404074101974	762
0	2087	140269.15587959284	763
0	2089	140361.071729972611	764
0	2091	140575.287354680041	765
0	2093	140773.822987720197	766
0	2095	140828.165562762324	767
0	2097	140839.116884246534	768
0	2099	140975.127608092006	769
0	2100	141000	768
0	2105	141076.621270768554	769
0	2107	141274.807449969224	770
0	2109	141297.068682078076	771
0	2111	141396.823625870389	772
0	2112	142500	771
0	2117	142510.260531048375	772
0	2119	142907.906084102655	773
0	2121	142955.220265632344	774
0	2123	143221.132623260679	775
0	2125	143336.332619620485	776
0	2127	143361.453739013172	777
0	2129	143437.76247003424	778
0	2131	143591.769335923335	779
0	2132	144000	778
0	2137	144045.977512854078	779
0	2139	144166.900596387189	780
0	2141	144372.303594324314	781
0	2143	144447.759630532688	782
0	2145	144734.185582665796	783
0	2147	144849.339638431265	784
0	2149	144954.23348493694	785
0	2151	144956.875722286671	786
0	2153	144958.168824072164	787
0	2155	144991.139563213542	788
0	2157	145208.916055867872	789
0	2159	145409.698303077302	790
0	2160	145500	789
0	2165	145548.825713899207	790
0	2167	145573.855718170127	791
0	2169	146084.159638688356	792
0	2171	146145.867687689487	793
0	2173	146200.341462115737	794
0	2175	146342.330305106965	795
0	2177	146357.486957997453	796
0	2178	147000	795
0	2183	147010.079177388137	796
0	2185	147026.806744943911	797
0	2187	147456.211867633559	798
0	2189	147509.111716028895	799
0	2191	147751.828524635524	800
0	2193	147758.975090424571	801
0	2195	147929.627988847261	802
0	2197	148081.531689207595	803
0	2199	148280.7741833662	804
0	2201	148323.759075451687	805
0	2203	148383.638903548786	806
0	2205	148402.815512309644	807
0	2207	148484.773380395512	808
0	2208	148500	807
0	2213	148593.811444054817	808
0	2215	148660.929379295996	809
0	2217	148762.246148343987	810
0	2219	149026.084310165142	811
0	2221	149653.134684905143	812
0	2223	149863.851750350293	813
0	2224	150000	812
0	2229	150369.818065498329	813
0	2231	150453.771181471973	814
0	2233	150642.615538623974	815
0	2235	150772.205895676301	816
0	2237	150943.07651959991	817
0	2239	151076.27932928689	818
0	2240	151500	817
0	2245	151580.648898544936	818
0	2247	151584.97243926306	819
0	2249	151911.480586981824	820
0	2251	151950.970955161159	821
0	2253	152135.556701244505	822
0	2255	152363.814303076862	823
0	2256	153000	822
0	2261	153054.863242062933	823
0	2263	153055.05101945589	824
0	2265	153312.353081463295	825
0	2267	153807.383920350529	826
0	2269	153933.540343253197	827
0	2271	153963.342296094852	828
0	2273	154308.239504981716	829
0	2275	154312.365114642939	830
0	2277	154324.566134052093	831
0	2279	154478.268879430318	832
0	2280	154500	831
0	2285	154558.76629663291	832
0	2287	154622.450295104829	833
0	2289	154823.988058888447	834
0	2291	154833.608701965798	835
0	2293	154859.094487404288	836
0	2295	155037.654228515177	837
0	2297	155053.461002840931	838
0	2299	155110.802923134759	839
0	2301	155270.803026643723	840
0	2303	155336.586955530472	841
0	2305	155488.58201519782	842
0	2307	155514.857381809444	843
0	2309	155579.407807663717	844
0	2311	155900.140706946541	845
0	2313	155984.119198892063	846
0	2314	156000	845
0	2319	156028.057915404493	846
0	2321	156294.072366243003	847
0	2323	156454.234486050118	848
0	2325	157052.721128250226	849
0	2327	157100.656521063532	850
0	2329	157124.932713615553	851
0	2331	157186.20392295572	852
0	2333	157303.800258914738	853
0	2334	157500	852
0	2339	157781.190371662089	853
0	2341	157811.983885286122	854
0	2343	157869.244780880672	855
0	2345	157892.364680603487	856
0	2347	157903.4998336149	857
0	2349	157981.14018404315	858
0	2351	158000.385351143015	859
0	2353	158077.316999438721	860
0	2355	158303.830625223582	861
0	2357	158397.39816862858	862
0	2359	158432.692284639137	863
0	2361	158643.001233460838	864
0	2362	159000	863
0	2367	159126.816254747272	864
0	2369	159427.255715412261	865
0	2371	159810.860703304849	866
0	2373	160034.972257621319	867
0	2375	160153.299682340701	868
0	2377	160438.557048898493	869
0	2378	160500	868
0	2383	160596.672974643094	869
0	2385	160945.148666960559	870
0	2387	161144.151044696744	871
0	2389	161177.779203710353	872
0	2391	161797.29266624198	873
0	2393	161877.534759572353	874
0	2394	162000	873
0	2399	162835.687073449198	874
0	2401	163102.90534903534	875
0	2403	163201.856300446727	876
0	2405	163331.899889347343	877
0	2407	163485.618721331544	878
0	2408	163500	877
0	2413	163604.475251797747	878
0	2415	163639.119406231435	879
0	2417	163679.765058767692	880
0	2419	163750.816576901336	881
0	2421	163912.861131538408	882
0	2423	163944.004275011986	883
0	2425	163954.305401040069	884
0	2427	164006.649735844985	885
0	2429	164015.383853474728	886
0	2431	164141.996831795334	887
0	2433	164253.980987610787	888
0	2435	164443.152150043238	889
0	2437	164546.508916945899	890
0	2439	164642.753621289882	891
0	2441	164720.326110656393	892
0	2443	164850.669471822775	893
0	2444	165000	892
0	2449	165138.382565486426	893
0	2451	165141.359761815026	894
0	2453	165363.510181056356	895
0	2455	165373.686769625455	896
0	2457	165474.875682131505	897
0	2459	165676.385928199013	898
0	2461	165831.007973416151	899
0	2463	166361.62308986329	900
0	2464	166500	899
0	2469	166587.173082489281	900
0	2471	166780.338932569009	901
0	2473	166899.680177963636	902
0	2475	166993.534593225256	903
0	2477	167203.39365832501	904
0	2479	167537.215365890673	905
0	2481	167718.941286749344	906
0	2483	167888.348657117565	907
0	2485	167890.657343417109	908
0	2486	168000	907
0	2491	168056.721213170305	908
0	2493	168082.681822090439	909
0	2495	168141.409211477152	910
0	2497	168446.942336083229	911
0	2499	168563.831282823605	912
0	2501	168756.106341436292	913
0	2503	168889.115172854641	914
0	2505	168917.132820701626	915
0	2507	169093.992980132924	916
0	2509	169244.880057960079	917
0	2511	169375.816048781099	918
0	2512	169500	917
0	2517	169784.671204834006	918
0	2519	170010.030286485812	919
0	2521	170170.412979858691	920
0	2523	170210.516416377944	921
0	2525	170245.538267756002	922
0	2527	170306.708256552027	923
0	2529	170454.134847484743	924
0	2531	170688.32467211751	925
0	2533	170741.450162669875	926
0	2535	170799.216559171501	927
0	2537	170900.209656591206	928
0	2539	170912.005436463479	929
0	2541	170946.869385384638	930
0	2543	170954.277320072738	931
0	2544	171000	930
0	2549	171033.124410237874	931
0	2551	171124.77806485725	932
0	2553	171611.117655979392	933
0	2555	171717.910170648923	934
0	2557	171882.731321469951	935
0	2559	171906.333391268987	936
0	2561	171910.385813378099	937
0	2563	171998.014416498536	938
0	2565	172180.720202971234	939
0	2567	172230.868934599803	940
0	2569	172284.939760629344	941
0	2571	172445.443546626873	942
0	2572	172500	941
0	2577	172624.96225583887	942
0	2579	172925.61257219379	943
0	2581	172976.041246316119	944
0	2583	173132.581660925133	945
0	2585	173397.916765043994	946
0	2586	174000	945
0	2591	174407.581035128408	946
0	2593	174420.525456501859	947
0	2595	174578.456232250848	948
0	2596	175500	947
0	2601	175543.953051645215	948
0	2603	175667.240939985375	949
0	2605	175736.552081870441	950
0	2607	175915.3282099756	951
0	2609	176310.529652443831	952
0	2611	176437.561311626348	953
0	2613	176541.184114352202	954
0	2615	176554.222592737984	955
0	2617	176667.548622858565	956
0	2618	177000	955
0	2623	177036.063036727263	956
0	2625	177160.527225355039	957
0	2627	177596.318045178154	958
0	2629	177739.657667659052	959
0	2631	177872.389895374333	960
0	2633	178011.77630971487	961
0	2635	178020.928203541131	962
0	2637	178171.189610477515	963
0	2639	178466.284396933283	964
0	2640	178500	963
0	2645	178635.31028895021	964
0	2647	179092.243572178056	965
0	2649	179123.478289929225	966
0	2651	179424.754471092805	967
0	2653	179741.460732283923	968
0	2655	179815.520619638123	969
0	2657	179890.115173113523	970
0	2658	180000	969
0	2663	180106.713185638761	970
0	2665	180107.521166962121	971
0	2667	180257.576198596484	972
0	2669	180312.248933465955	973
0	2671	180404.310152726383	974
0	2673	180435.418258765676	975
0	2675	180500.923808291293	976
0	2677	180595.29444285139	977
0	2679	180696.478860411929	978
0	2681	180985.914511310594	979
0	2683	181004.98581252791	980
0	2685	181254.428808038965	981
0	2687	181355.043408614748	982
0	2688	181500	981
0	2693	181619.778652186197	982
0	2695	181685.956100676399	983
0	2697	181835.677054257014	984
0	2699	182067.908542048155	985
0	2701	182213.952848997239	986
0	2703	182344.880997662968	987
0	2705	182537.436407686392	988
0	2707	182642.223195591298	989
0	2709	182885.997606864743	990
0	2710	183000	989
0	2715	183002.093430667906	990
0	2717	183086.379444894952	991
0	2719	183263.122392860079	992
0	2721	183405.286611695944	993
0	2723	183483.368672187257	994
0	2725	184016.517595099269	995
0	2727	184166.138876797971	996
0	2729	184288.501721690598	997
0	2731	184289.376910613179	998
0	2733	184312.446821175052	999
0	2735	184335.955635004193	1000
0	2736	184500	999
0	2741	184546.439400475343	1000
0	2743	184618.582758754672	1001
0	2745	184672.778650305989	1002
0	2747	184676.317440831016	1003
0	2749	184910.773392591526	1004
0	2751	185284.563337033782	1005
0	2753	185330.958651981336	1006
0	2754	186000	1005
0	2759	186239.961686739117	1006
0	2761	186581.022182689579	1007
0	2763	186593.388939561608	1008
0	2765	186738.843340288259	1009
0	2767	186979.078131131267	1010
0	2769	187071.6524590831	1011
0	2771	187330.428252247631	1012
0	2773	187496.878162692736	1013
0	2774	187500	1012
0	2779	187794.199552493133	1013
0	2781	188017.01093631944	1014
0	2783	188041.438527262341	1015
0	2785	188244.718829525357	1016
0	2787	188416.264847509355	1017
0	2789	188514.052517608877	1018
0	2791	188859.036084690133	1019
0	2792	189000	1018
0	2797	189037.174280264008	1019
0	2799	189176.347817173231	1020
0	2801	189288.459932102649	1021
0	2803	189316.451028329221	1022
0	2805	189528.085548250367	1023
0	2807	189579.510899921466	1024
0	2809	189635.837156419357	1025
0	2811	189676.636657597722	1026
0	2813	189693.907409701116	1027
0	2815	189786.678019824254	1028
0	2817	190209.159569549729	1029
0	2818	190500	1028
0	2823	190633.441895367522	1029
0	2825	191528.570757375375	1030
0	2826	192000	1029
0	2831	192070.115113168901	1030
0	2833	192087.338489892995	1031
0	2835	192349.231936387495	1032
0	2837	192352.801941139607	1033
0	2839	192365.068123796202	1034
0	2841	192770.721919979794	1035
0	2843	192849.843979851718	1036
0	2845	192860.981993944606	1037
0	2847	192865.107582825834	1038
0	2849	193014.061074659654	1039
0	2851	193122.313687758414	1040
0	2853	193247.094595425886	1041
0	2855	193319.599615488741	1042
0	2857	193383.653874050993	1043
0	2859	193466.196794197056	1044
0	2860	193500	1043
0	2865	193621.856237896977	1044
0	2867	194136.957018015844	1045
0	2869	194492.994052708464	1046
0	2871	194788.422202191107	1047
0	2872	195000	1046
0	2877	195290.625957320989	1047
0	2879	195392.866989350761	1048
0	2881	195553.678692502893	1049
0	2883	195803.879201764541	1050
0	2885	196097.573113971983	1051
0	2887	196406.89417903788	1052
0	2888	196500	1051
0	2893	196913.028328914448	1052
0	2895	196946.789780444957	1053
0	2897	197062.641120122299	1054
0	2899	197244.179652628916	1055
0	2901	197664.287114401906	1056
0	2903	197779.941605792315	1057
0	2905	197825.576652642276	1058
0	2907	197876.219109843318	1059
0	2908	198000	1058
0	2913	198046.086816940921	1059
0	2915	198511.849785244472	1060
0	2917	198612.822263389474	1061
0	2919	198774.595882141381	1062
0	2921	198856.770285643621	1063
0	2923	199122.798492200561	1064
0	2925	199127.5500346315	1065
0	2927	199168.476280959563	1066
0	2929	199253.696175358357	1067
0	2931	199262.290011810351	1068
0	2933	199449.852417633566	1069
0	2935	199450.133614570967	1070
0	2937	199475.886036505274	1071
0	2938	199500	1070
0	2943	199581.034866319742	1071
0	2945	199684.429915375768	1072
0	2947	199754.518103649071	1073
0	2949	199784.402795840731	1074
0	2951	199808.130275648169	1075
0	2953	200092.608478950076	1076
0	2955	200288.109338606021	1077
0	2957	200404.145807941381	1078
0	2959	200420.496693468369	1079
0	2961	200489.863129900426	1080
0	2963	200676.170710211869	1081
0	2965	200968.125380341699	1082
0	2966	201000	1081
0	2971	201042.056554603555	1082
0	2973	201077.240658784825	1083
0	2975	201130.814513158225	1084
0	2977	201516.592504021518	1085
0	2979	201519.996940122036	1086
0	2987	202500	1085
0	3003	204000	1084
0	3035	205500	1083
0	3053	207000	1082
0	3061	208500	1081
0	3089	210000	1080
0	3119	211500	1079
0	3149	213000	1078
0	3173	214500	1077
0	3193	216000	1076
0	3219	217500	1075
0	3239	219000	1074
0	3265	220500	1073
0	3297	222000	1072
0	3337	223500	1071
0	3367	225000	1070
0	3379	226500	1069
0	3393	228000	1068
0	3409	229500	1067
0	3435	231000	1066
0	3463	232500	1065
0	3483	234000	1064
0	3499	235500	1063
0	3515	237000	1062
0	3543	238500	1061
0	3569	240000	1060
0	3593	241500	1059
0	3615	243000	1058
0	3639	244500	1057
0	3653	246000	1056
0	3681	247500	1055
0	3709	249000	1054
0	3745	250500	1053
0	3773	252000	1052
0	3801	253500	1051
0	3823	255000	1050
0	3851	256500	1049
0	3879	258000	1048
0	3897	259500	1047
0	3913	261000	1046
0	3925	262500	1045
0	3945	264000	1044
0	3981	265500	1043
0	3999	267000	1042
0	4031	268500	1041
0	4059	270000	1040
0	4079	271500	1039
0	4099	273000	1038
0	4123	274500	1037
0	4143	276000	1036
0	4159	277500	1035
0	4187	279000	1034
0	4205	280500	1033
0	4227	282000	1032
0	4251	283500	1031
0	4277	285000	1030
0	4305	286500	1029
0	4327	288000	1028
0	4351	289500	1027
0	4367	291000	1026
0	4387	292500	1025
0	4417	294000	1024
0	4435	295500	1023
0	4459	297000	1022
0	4477	298500	1021
0	4503	300000	1020
0	4525	301500	1019
0	4559	303000	1018
0	4581	304500	1017
0	4601	306000	1016
0	4623	307500	1015
0	4641	309000	1014
0	4667	310500	1013
0	4685	312000	1012
0	4705	313500	1011
0	4729	315000	1010
0	4755	316500	1009
0	4791	318000	1008
0	4823	319500	1007
0	4843	321000	1006
0	4859	322500	1005
0	4891	324000	1004
0	4921	325500	1003
0	4945	327000	1002
0	4973	328500	1001
0	4997	330000	1000
0	5021	331500	999
0	5039	333000	998
0	5065	334500	997
0	5103	336000	996
0	5121	337500	995
0	5139	339000	994
0	5165	340500	993
0	5181	342000	992
0	5195	343500	991
0	5211	345000	990
0	5235	346500	989
0	5257	348000	988
0	5273	349500	987
0	5295	351000	986
0	5315	352500	985
0	5333	354000	984
0	5353	355500	983
0	5371	357000	982
0	5395	358500	981
0	5415	360000	980
0	5441	361500	979
0	5477	363000	978
0	5487	364500	977
0	5507	366000	976
0	5527	367500	975
0	5545	369000	974
0	5569	370500	973
0	5591	372000	972
0	5605	373500	971
0	5637	375000	970
0	5661	376500	969
0	5677	378000	968
0	5701	379500	967
0	5717	381000	966
0	5733	382500	965
0	5753	384000	964
0	5769	385500	963
0	5791	387000	962
0	5811	388500	961
0	5829	390000	960
0	5853	391500	959
0	5887	393000	958
0	5901	394500	957
0	5929	396000	956
0	5957	397500	955
0	5983	399000	954
0	5999	400500	953
0	6023	402000	952
0	6049	403500	951
0	6065	405000	950
0	6085	406500	949
0	6103	408000	948
0	6129	409500	947
0	6157	411000	946
0	6183	412500	945
0	6197	414000	944
0	6217	415500	943
0	6235	417000	942
0	6253	418500	941
0	6275	420000	940
0	6291	421500	939
0	6317	423000	938
0	6343	424500	937
0	6373	426000	936
0	6403	427500	935
0	6421	429000	934
0	6443	430500	933
0	6463	432000	932
0	6485	433500	931
0	6513	435000	930
0	6539	436500	929
0	6553	438000	928
0	6571	439500	927
0	6595	441000	926
0	6611	442500	925
0	6629	444000	924
0	6659	445500	923
0	6681	447000	922
0	6711	448500	921
0	6735	450000	920
0	6767	451500	919
0	6791	453000	918
0	6811	454500	917
0	6837	456000	916
0	6855	457500	915
0	6881	459000	914
0	6913	460500	913
0	6949	462000	912
0	6967	463500	911
0	6995	465000	910
0	7025	466500	909
0	7047	468000	908
0	7055	469500	907
0	7081	471000	906
0	7111	472500	905
0	7137	474000	904
0	7163	475500	903
0	7189	477000	902
0	7203	478500	901
0	7219	480000	900
0	7249	481500	899
0	7277	483000	898
0	7303	484500	897
0	7331	486000	896
0	7349	487500	895
0	7361	489000	894
0	7375	490500	893
0	7395	492000	892
0	7425	493500	891
0	7455	495000	890
0	7473	496500	889
0	7505	498000	888
0	7521	499500	887
0	7543	501000	886
0	7577	502500	885
0	7597	504000	884
0	7625	505500	883
0	7649	507000	882
0	7663	508500	881
0	7679	510000	880
0	7691	511500	879
0	7711	513000	878
0	7737	514500	877
0	7755	516000	876
0	7773	517500	875
0	7787	519000	874
0	7801	520500	873
0	7829	522000	872
0	7845	523500	871
0	7863	525000	870
0	7889	526500	869
0	7925	528000	868
0	7939	529500	867
0	7971	531000	866
0	7995	532500	865
0	8019	534000	864
0	8035	535500	863
0	8059	537000	862
0	8075	538500	861
0	8105	540000	860
0	8123	541500	859
0	8147	543000	858
0	8167	544500	857
0	8185	546000	856
0	8203	547500	855
0	8219	549000	854
0	8235	550500	853
0	8267	552000	852
0	8285	553500	851
0	8303	555000	850
0	8329	556500	849
0	8349	558000	848
0	8373	559500	847
0	8385	561000	846
0	8407	562500	845
0	8429	564000	844
0	8461	565500	843
0	8481	567000	842
0	8513	568500	841
0	8539	570000	840
0	8557	571500	839
0	8581	573000	838
0	8595	574500	837
0	8621	576000	836
0	8649	577500	835
0	8677	579000	834
0	8693	580500	833
0	8711	582000	832
0	8737	583500	831
0	8765	585000	830
0	8781	586500	829
0	8807	588000	828
0	8821	589500	827
0	8847	591000	826
0	8883	592500	825
0	8909	594000	824
0	8941	595500	823
0	8971	597000	822
0	8991	598500	821
0	9013	600000	820
0	9043	601500	819
0	9055	603000	818
0	9089	604500	817
0	9098	606000	816
0	9112	607500	815
0	9120	609000	814
0	9130	610500	813
0	9138	612000	812
0	9146	613500	811
0	9154	615000	810
0	9160	616500	809
0	9178	618000	808
0	9184	619500	807
0	9190	621000	806
0	9198	622500	805
0	9210	624000	804
0	9216	625500	803
0	9226	627000	802
0	9236	628500	801
0	9244	630000	800
0	9250	631500	799
0	9258	633000	798
0	9266	634500	797
0	9272	636000	796
0	9284	637500	795
0	9294	639000	794
0	9304	640500	793
0	9314	642000	792
0	9326	643500	791
0	9336	645000	790
0	9344	646500	789
0	9360	648000	788
0	9368	649500	787
0	9376	651000	786
0	9388	652500	785
0	9396	654000	784
0	9406	655500	783
0	9420	657000	782
0	9430	658500	781
0	9444	660000	780
0	9450	661500	779
0	9458	663000	778
0	9462	664500	777
0	9474	666000	776
0	9486	667500	775
0	9492	669000	774
0	9502	670500	773
0	9510	672000	772
0	9516	673500	771
0	9530	675000	770
0	9536	676500	769
0	9542	678000	768
0	9554	679500	767
0	9560	681000	766
0	9566	682500	765
0	9576	684000	764
0	9586	685500	763
0	9598	687000	762
0	9614	688500	761
0	9624	690000	760
0	9630	691500	759
0	9638	693000	758
0	9646	694500	757
0	9654	696000	756
0	9670	697500	755
0	9678	699000	754
0	9682	700500	753
0	9696	702000	752
0	9704	703500	751
0	9714	705000	750
0	9724	706500	749
0	9738	708000	748
0	9756	709500	747
0	9764	711000	746
0	9776	712500	745
0	9784	714000	744
0	9792	715500	743
0	9802	717000	742
0	9816	718500	741
0	9822	720000	740
0	9832	721500	739
0	9844	723000	738
0	9848	724500	737
0	9856	726000	736
0	9866	727500	735
0	9876	729000	734
0	9884	730500	733
0	9894	732000	732
0	9900	733500	731
0	9910	735000	730
0	9924	736500	729
0	9934	738000	728
0	9946	739500	727
0	9958	741000	726
0	9964	742500	725
0	9970	744000	724
0	9978	745500	723
0	9986	747000	722
0	9998	748500	721
0	10008	750000	720
0	10018	751500	719
0	10032	753000	718
0	10042	754500	717
0	10052	756000	716
0	10064	757500	715
0	10074	759000	714
0	10086	760500	713
0	10100	762000	712
0	10108	763500	711
0	10116	765000	710
0	10126	766500	709
0	10132	768000	708
0	10140	769500	707
0	10148	771000	706
0	10152	772500	705
0	10160	774000	704
0	10168	775500	703
0	10180	777000	702
0	10188	778500	701
0	10202	780000	700
0	10212	781500	699
0	10218	783000	698
0	10226	784500	697
0	10230	786000	696
0	10236	787500	695
0	10240	789000	694
0	10246	790500	693
0	10256	792000	692
0	10268	793500	691
0	10282	795000	690
0	10294	796500	689
0	10310	798000	688
0	10316	799500	687
0	10328	801000	686
0	10338	802500	685
0	10352	804000	684
0	10356	805500	683
0	10360	807000	682
0	10370	808500	681
0	10380	810000	680
0	10388	811500	679
0	10396	813000	678
0	10404	814500	677
0	10416	816000	676
0	10424	817500	675
0	10438	819000	674
0	10446	820500	673
0	10452	822000	672
0	10460	823500	671
0	10468	825000	670
0	10476	826500	669
0	10488	828000	668
0	10496	829500	667
0	10514	831000	666
0	10518	832500	665
0	10526	834000	664
0	10538	835500	663
0	10544	837000	662
0	10556	838500	661
0	10562	840000	660
0	10576	841500	659
0	10582	843000	658
0	10590	844500	657
0	10596	846000	656
0	10610	847500	655
0	10624	849000	654
0	10630	850500	653
0	10638	852000	652
0	10652	853500	651
0	10660	855000	650
0	10668	856500	649
0	10678	858000	648
0	10686	859500	647
0	10690	861000	646
0	10702	862500	645
0	10716	864000	644
0	10728	865500	643
0	10740	867000	642
0	10750	868500	641
0	10758	870000	640
0	10768	871500	639
0	10774	873000	638
0	10780	874500	637
0	10786	876000	636
0	10790	877500	635
0	10798	879000	634
0	10812	880500	633
0	10828	882000	632
0	10838	883500	631
0	10844	885000	630
0	10854	886500	629
0	10864	888000	628
0	10870	889500	627
0	10880	891000	626
0	10884	892500	625
0	10890	894000	624
0	10902	895500	623
0	10914	897000	622
0	10922	898500	621
0	10936	900000	620
0	10944	901500	619
0	10954	903000	618
0	10962	904500	617
0	10972	906000	616
0	10978	907500	615
0	10982	909000	614
0	10992	910500	613
0	10998	912000	612
0	11012	913500	611
0	11024	915000	610
0	11034	916500	609
0	11042	918000	608
0	11054	919500	607
0	11060	921000	606
0	11068	922500	605
0	11074	924000	604
0	11080	925500	603
0	11088	927000	602
0	11100	928500	601
0	11108	930000	600
0	11120	931500	599
0	11138	933000	598
0	11148	934500	597
0	11156	936000	596
0	11164	937500	595
0	11178	939000	594
0	11186	940500	593
0	11198	942000	592
0	11206	943500	591
0	11216	945000	590
0	11222	946500	589
0	11234	948000	588
0	11244	949500	587
0	11252	951000	586
0	11260	952500	585
0	11272	954000	584
0	11280	955500	583
0	11292	957000	582
0	11304	958500	581
0	11316	960000	580
0	11322	961500	579
0	11328	963000	578
0	11336	964500	577
0	11346	966000	576
0	11354	967500	575
0	11360	969000	574
0	11366	970500	573
0	11372	972000	572
0	11382	973500	571
0	11398	975000	570
0	11410	976500	569
0	11424	978000	568
0	11428	979500	567
0	11436	981000	566
0	11448	982500	565
0	11454	984000	564
0	11468	985500	563
0	11484	987000	562
0	11500	988500	561
0	11506	990000	560
0	11514	991500	559
0	11518	993000	558
0	11526	994500	557
0	11536	996000	556
0	11546	997500	555
0	11556	999000	554
0	11568	1000500	553
0	11576	1002000	552
0	11590	1003500	551
0	11600	1005000	550
0	11610	1006500	549
0	11626	1008000	548
0	11640	1009500	547
0	11652	1011000	546
0	11662	1012500	545
0	11670	1014000	544
0	11682	1015500	543
0	11690	1017000	542
0	11700	1018500	541
0	11708	1020000	540
0	11714	1021500	539
0	11722	1023000	538
0	11732	1024500	537
0	11744	1026000	536
0	11756	1027500	535
0	11766	1029000	534
0	11772	1030500	533
0	11786	1032000	532
0	11792	1033500	531
0	11800	1035000	530
0	11812	1036500	529
0	11820	1038000	528
0	11828	1039500	527
0	11832	1041000	526
0	11840	1042500	525
0	11858	1044000	524
0	11868	1045500	523
0	11884	1047000	522
0	11898	1048500	521
0	11910	1050000	520
0	11920	1051500	519
0	11930	1053000	518
0	11940	1054500	517
0	11946	1056000	516
0	11952	1057500	515
0	11966	1059000	514
0	11974	1060500	513
0	11982	1062000	512
0	11986	1063500	511
0	11994	1065000	510
0	12000	1066500	509
0	12004	1068000	508
0	12014	1069500	507
0	12026	1071000	506
0	12036	1072500	505
0	12046	1074000	504
0	12054	1075500	503
0	12064	1077000	502
0	12076	1078500	501
0	12086	1080000	500
0	12096	1081500	499
0	12104	1083000	498
0	12118	1084500	497
0	12124	1086000	496
0	12136	1087500	495
0	12142	1089000	494
0	12152	1090500	493
0	12160	1092000	492
0	12170	1093500	491
0	12190	1095000	490
0	12196	1096500	489
0	12206	1098000	488
0	12214	1099500	487
0	12222	1101000	486
0	12232	1102500	485
0	12244	1104000	484
0	12258	1105500	483
0	12262	1107000	482
0	12268	1108500	481
0	12280	1110000	480
0	12296	1111500	479
0	12304	1113000	478
0	12320	1114500	477
0	12332	1116000	476
0	12342	1117500	475
0	12352	1119000	474
0	12356	1120500	473
0	12362	1122000	472
0	12372	1123500	471
0	12386	1125000	470
0	12396	1126500	469
0	12402	1128000	468
0	12408	1129500	467
0	12422	1131000	466
0	12430	1132500	465
0	12440	1134000	464
0	12448	1135500	463
0	12458	1137000	462
0	12464	1138500	461
0	12468	1140000	460
0	12474	1141500	459
0	12486	1143000	458
0	12490	1144500	457
0	12502	1146000	456
0	12512	1147500	455
0	12522	1149000	454
0	12530	1150500	453
0	12540	1152000	452
0	12552	1153500	451
0	12562	1155000	450
0	12576	1156500	449
0	12584	1158000	448
0	12592	1159500	447
0	12596	1161000	446
0	12606	1162500	445
0	12612	1164000	444
0	12616	1165500	443
0	12624	1167000	442
0	12636	1168500	441
0	12644	1170000	440
0	12652	1171500	439
0	12662	1173000	438
0	12670	1174500	437
0	12678	1176000	436
0	12688	1177500	435
0	12696	1179000	434
0	12702	1180500	433
0	12710	1182000	432
0	12718	1183500	431
0	12736	1185000	430
0	12746	1186500	429
0	12764	1188000	428
0	12770	1189500	427
0	12778	1191000	426
0	12784	1192500	425
0	12792	1194000	424
0	12802	1195500	423
0	12820	1197000	422
0	12828	1198500	421
0	12838	1200000	420
0	12846	1201500	419
0	12864	1203000	418
0	12872	1204500	417
0	12884	1206000	416
0	12896	1207500	415
0	12908	1209000	414
0	12914	1210500	413
0	12924	1212000	412
0	12934	1213500	411
0	12940	1215000	410
0	12956	1216500	409
0	12962	1218000	408
0	12980	1219500	407
0	12986	1221000	406
0	12994	1222500	405
0	13002	1224000	404
0	13014	1225500	403
0	13022	1227000	402
0	13028	1228500	401
0	13038	1230000	400
0	13050	1231500	399
0	13056	1233000	398
0	13074	1234500	397
0	13086	1236000	396
0	13096	1237500	395
0	13104	1239000	394
0	13110	1240500	393
0	13122	1242000	392
0	13130	1243500	391
0	13138	1245000	390
0	13150	1246500	389
0	13162	1248000	388
0	13168	1249500	387
0	13172	1251000	386
0	13178	1252500	385
0	13192	1254000	384
0	13202	1255500	383
0	13220	1257000	382
0	13234	1258500	381
0	13242	1260000	380
0	13254	1261500	379
0	13262	1263000	378
0	13268	1264500	377
0	13282	1266000	376
0	13294	1267500	375
0	13300	1269000	374
0	13316	1270500	373
0	13330	1272000	372
0	13338	1273500	371
0	13350	1275000	370
0	13356	1276500	369
0	13364	1278000	368
0	13372	1279500	367
0	13380	1281000	366
0	13390	1282500	365
0	13404	1284000	364
0	13412	1285500	363
0	13426	1287000	362
0	13432	1288500	361
0	13450	1290000	360
0	13458	1291500	359
0	13468	1293000	358
0	13474	1294500	357
0	13486	1296000	356
0	13498	1297500	355
0	13510	1299000	354
0	13528	1300500	353
0	13536	1302000	352
0	13544	1303500	351
0	13560	1305000	350
0	13568	1306500	349
0	13580	1308000	348
0	13588	1309500	347
0	13600	1311000	346
0	13614	1312500	345
0	13624	1314000	344
0	13642	1315500	343
0	13656	1317000	342
0	13664	1318500	341
0	13672	1320000	340
0	13684	1321500	339
0	13692	1323000	338
0	13696	1324500	337
0	13702	1326000	336
0	13712	1327500	335
0	13722	1329000	334
0	13732	1330500	333
0	13742	1332000	332
0	13756	1333500	331
0	13762	1335000	330
0	13774	1336500	329
0	13786	1338000	328
0	13794	1339500	327
0	13802	1341000	326
0	13808	1342500	325
0	13820	1344000	324
0	13824	1345500	323
0	13834	1347000	322
0	13842	1348500	321
0	13848	1350000	320
0	13852	1351500	319
0	13860	1353000	318
0	13865	1354500	317
0	13869	1356000	316
0	13873	1357500	315
0	13877	1359000	314
0	13881	1360500	313
0	13885	1362000	312
0	13889	1363500	311
0	13893	1365000	310
0	13897	1366500	309
0	13901	1368000	308
0	13905	1369500	307
0	13909	1371000	306
0	13913	1372500	305
0	13917	1374000	304
0	13921	1375500	303
0	13925	1377000	302
0	13929	1378500	301
0	13933	1380000	300
0	13937	1381500	299
0	13941	1383000	298
0	13945	1384500	297
0	13949	1386000	296
0	13953	1387500	295
0	13957	1389000	294
0	13961	1390500	293
0	13965	1392000	292
0	13969	1393500	291
0	13973	1395000	290
0	13977	1396500	289
0	13981	1398000	288
0	13985	1399500	287
0	13989	1401000	286
0	13993	1402500	285
0	13997	1404000	284
0	14001	1405500	283
0	14005	1407000	282
0	14009	1408500	281
0	14013	1410000	280
0	14017	1411500	279
0	14021	1413000	278
0	14025	1414500	277
0	14029	1416000	276
0	14033	1417500	275
0	14037	1419000	274
0	14041	1420500	273
0	14045	1422000	272
0	14049	1423500	271
0	14053	1425000	270
0	14057	1426500	269
0	14061	1428000	268
0	14065	1429500	267
0	14069	1431000	266
0	14073	1432500	265
0	14077	1434000	264
0	14081	1435500	263
0	14085	1437000	262
0	14089	1438500	261
0	14093	1440000	260
0	14097	1441500	259
0	14101	1443000	258
0	14105	1444500	257
0	14109	1446000	256
0	14113	1447500	255
0	14117	1449000	254
0	14121	1450500	253
0	14125	1452000	252
0	14129	1453500	251
0	14133	1455000	250
0	14137	1456500	249
0	14141	1458000	248
0	14145	1459500	247
0	14149	1461000	246
0	14153	1462500	245
0	14157	1464000	244
0	14161	1465500	243
0	14165	1467000	242
0	14169	1468500	241
0	14173	1470000	240
0	14177	1471500	239
0	14181	1473000	238
0	14185	1474500	237
0	14189	1476000	236
0	14193	1477500	235
0	14197	1479000	234
0	14201	1480500	233
0	14205	1482000	232
0	14209	1483500	231
0	14213	1485000	230
0	14217	1486500	229
0	14221	1488000	228
0	14225	1489500	227
0	14229	1491000	226
0	14233	1492500	225
0	14237	1494000	224
0	14241	1495500	223
0	14245	1497000	222
0	14249	1498500	221
0	14253	1500000	220
0	14257	1501500	219
0	14261	1503000	218
0	14265	1504500	217
0	14269	1506000	216
0	14273	1507500	215
0	14277	1509000	214
0	14281	1510500	213
0	14285	1512000	212
0	14289	1513500	211
0	14293	1515000	210
0	14297	1516500	209
0	14301	1518000	208
0	14305	1519500	207
0	14309	1521000	206
0	14313	1522500	205
0	14317	1524000	204
0	14321	1525500	203
0	14325	1527000	202
0	14329	1528500	201
0	14333	1530000	200
0	14337	1531500	199
0	14341	1533000	198
0	14345	1534500	197
0	14349	1536000	196
0	14353	1537500	195
0	14357	1539000	194
0	14361	1540500	193
0	14365	1542000	192
0	14369	1543500	191
0	14373	1545000	190
0	14377	1546500	189
0	14381	1548000	188
0	14385	1549500	187
0	14389	1551000	186
0	14393	1552500	185
0	14397	1554000	184
0	14401	1555500	183
0	14405	1557000	182
0	14409	1558500	181
0	14413	1560000	180
0	14417	1561500	179
0	14421	1563000	178
0	14425	1564500	177
0	14429	1566000	176
0	14433	1567500	175
0	14437	1569000	174
0	14441	1570500	173
0	14445	1572000	172
0	14449	1573500	171
0	14453	1575000	170
0	14457	1576500	169
0	14461	1578000	168
0	14465	1579500	167
0	14469	1581000	166
0	14473	1582500	165
0	14477	1584000	164
0	14481	1585500	163
0	14485	1587000	162
0	14489	1588500	161
0	14493	1590000	160
0	14497	1591500	159
0	14501	1593000	158
0	14505	1594500	157
0	14509	1596000	156
0	14513	1597500	155
0	14517	1599000	154
0	14521	1600500	153
0	14525	1602000	152
0	14529	1603500	151
0	14533	1605000	150
0	14537	1606500	149
0	14541	1608000	148
0	14545	1609500	147
0	14549	1611000	146
0	14553	1612500	145
0	14557	1614000	144
0	14561	1615500	143
0	14565	1617000	142
0	14569	1618500	141
0	14573	1620000	140
0	14577	1621500	139
0	14581	1623000	138
0	14585	1624500	137
0	14589	1626000	136
0	14593	1627500	135
0	14597	1629000	134
0	14601	1630500	133
0	14605	1632000	132
0	14609	1633500	131
0	14613	1635000	130
0	14617	1636500	129
0	14621	1638000	128
0	14625	1639500	127
0	14629	1641000	126
0	14633	1642500	125
0	14637	1644000	124
0	14641	1645500	123
0	14645	1647000	122
0	14649	1648500	121
0	14653	1650000	120
0	14657	1651500	119
0	14661	1653000	118
0	14665	1654500	117
0	14669	1656000	116
0	14673	1657500	115
0	14677	1659000	114
0	14681	1660500	113
0	14685	1662000	112
0	14689	1663500	111
0	14693	1665000	110
0	14697	1666500	109
0	14701	1668000	108
0	14705	1669500	107
0	14709	1671000	106
0	14713	1672500	105
0	14717	1674000	104
0	14721	1675500	103
0	14725	1677000	102
0	14729	1678500	101
0	14733	1680000	100
0	14737	1681500	99
0	14741	1683000	98
0	14745	1684500	97
0	14749	1686000	96
0	14753	1687500	95
0	14757	1689000	94
0	14761	1690500	93
0	14765	1692000	92
0	14769	1693500	91
0	14773	1695000	90
0	14777	1696500	89
0	14781	1698000	88
0	14785	1699500	87
0	14789	1701000	86
0	14793	1702500	85
0	14797	1704000	84
0	14801	1705500	83
0	14805	1707000	82
0	14809	1708500	81
0	14813	1710000	80
0	14817	1711500	79
0	14821	1713000	78
0	14825	1714500	77
0	14829	1716000	76
0	14833	1717500	75
0	14837	1719000	74
0	14841	1720500	73
0	14845	1722000	72
0	14849	1723500	71
0	14853	1725000	70
0	14857	1726500	69
0	14861	1728000	68
0	14865	1729500	67
0	14869	1731000	66
0	14873	1732500	65
0	14877	1734000	64
0	14881	1735500	63
0	14885	1737000	62
0	14889	1738500	61
0	14893	1740000	60
0	14897	1741500	59
0	14901	1743000	58
0	14905	1744500	57
0	14909	1746000	56
0	14913	1747500	55
0	14917	1749000	54
0	14921	1750500	53
0	14925	1752000	52
0	14929	1753500	51
0	14933	1755000	50
0	14937	1756500	49
0	14941	1758000	48
0	14945	1759500	47
0	14949	1761000	46
0	14953	1762500	45
0	14957	1764000	44
0	14961	1765500	43
0	14965	1767000	42
0	14969	1768500	41
0	14973	1770000	40
0	14977	1771500	39
0	14981	1773000	38
0	14985	1774500	37
0	14989	1776000	36
0	14993	1777500	35
0	14997	1779000	34
0	15001	1780500	33
0	15005	1782000	32
0	15009	1783500	31
0	15013	1785000	30
0	15017	1786500	29
0	15021	1788000	28
0	15025	1789500	27
0	15029	1791000	26
0	15033	1792500	25
0	15037	1794000	24
0	15041	1795500	23
0	15045	1797000	22
0	15049	1798500	21
0	15053	1800000	20
0	15057	1801500	19
0	15061	1803000	18
0	15065	1804500	17
0	15069	1806000	16
0	15073	1807500	15
0	15077	1809000	14
0	15081	1810500	13
0	15085	1812000	12
0	15089	1813500	11
0	15093	1815000	10
0	15097	1816500	9
0	15101	1818000	8
0	15105	1819500	7
0	15109	1821000	6
0	15113	1822500	5
0	15117	1824000	4
0	15121	1825500	3
0	15125	1827000	2
0	15129	1828500	1
0	15133	1830000	0
1	0	0	0
1	2981	201600	1
1	2984	202125.442159954127	2
1	2986	202297.316465808107	3
1	2992	202703.788748821729	4
1	2994	202711.675824713099	5
1	2996	202903.214937951057	6
1	2998	203284.362660697851	7
1	3000	203431.991697922792	8
1	3002	203826.764916630366	9
1	3008	204045.164093355914	10
1	3010	204109.726244274918	11
1	3012	204163.944897559888	12
1	3014	204221.046457255211	13
1	3016	204297.561063340065	14
1	3018	204462.661609690484	15
1	3020	204510.364460251245	16
1	3022	204617.5384582444	17
1	3024	204738.212556897311	18
1	3026	205006.36475221324	19
1	3028	205194.589943904308	20
1	3030	205323.961263401603	21
1	3032	205414.349695231518	22
1	3034	205417.353280567848	23
1	3040	205813.39986608048	24
1	3042	205876.252390226133	25
1	3044	205889.133805708067	26
1	3046	206100.0488553053	27
1	3048	206156.495980297643	28
1	3050	206881.275378293479	29
1	3052	206992.6719578579	30
1	3058	207638.505835332825	31
1	3060	208108.863275407789	32
1	3066	208797.842292330914	33
1	3068	208847.384154884445	34
1	3070	208933.888044909203	35
1	3072	209122.034099481039	36
1	3074	209154.501741140163	37
1	3076	209181.347302472659	38
1	3078	209189.800067598952	39
1	3080	209404.001420233485	40
1	3082	209452.559644433922	41
1	3084	209770.680202619885	42
1	3086	209811.715981449849	43
1	3088	209855.775269201259	44
1	3094	210134.084348304879	45
1	3096	210183.345276112813	46
1	3098	210204.342891862995	47
1	3100	210244.367784724667	48
1	3102	210501.572806076446	49
1	3104	210551.790297674503	50
1	3106	210749.879132312903	51
1	3108	210882.186830733584	52
1	3110	211043.843209673223	53
1	3112	211079.077667798395	54
1	3114	211121.088788223854	55
1	3116	211379.956074142781	56
1	3118	211404.649049083691	57
1	3124	211529.507766571417	58
1	3126	211609.117114542197	59
1	3128	211748.658482888911	60
1	3130	211855.112728564422	61
1	3132	211898.813493771585	62
1	3134	212042.896439920094	63
1	3136	212049.235742137623	64
1	3138	212059.637965619355	65
1	3140	212285.80599138552	66
1	3142	212356.415111642462	67
1	3144	212382.94188312527	68
1	3146	212705.469350934593	69
1	3148	212983.147749547041	70
1	3154	213046.968678327569	71
1	3156	213386.122116408803	72
1	3158	213416.02873661047	73
1	3160	213431.943910587046	74
1	3162	213540.217885346642	75
1	3164	213679.741341945738	76
1	3166	213716.183584522903	77
1	3168	213956.833385348826	78
1	3170	214093.599159847918	79
1	3172	214479.390881306951	80
1	3178	215082.229057166963	81
1	3180	215253.350885936502	82
1	3182	215421.933928635937	83
1	3184	215476.983007724254	84
1	3186	215529.407753160948	85
1	3188	215764.944437333037	86
1	3190	215776.927989655268	87
1	3192	215935.738267314506	88
1	3198	216055.072493046059	89
1	3200	216118.240664780103	90
1	3202	216248.318933827262	91
1	3204	216610.69484018345	92
1	3206	216779.889585701669	93
1	3208	216851.338977523428	94
1	3210	217123.799605422027	95
1	3212	217173.201851494507	96
1	3214	217179.908689240903	97
1	3216	217265.483726458594	98
1	3218	217350.718256532599	99
1	3224	217675.155144275375	100
1	3226	217766.498430416862	101
1	3228	217792.656043388584	102
1	3230	217964.710061167804	103
1	3232	217980.784966421634	104
1	3234	218607.565699561211	105
1	3236	218848.066281208973	106
1	3238	218850.253168947656	107
1	3244	219253.294686545751	108
1	3246	219367.583787762351	109
1	3248	219621.478226635551	110
1	3250	219861.274130224309	111
1	3252	219864.099985967051	112
1	3254	219952.862040621728	113
1	3256	220031.946291115419	114
1	3258	220038.734319129657	115
1	3260	220038.974506827189	116
1	3262	220218.571813462918	117
1	3264	220282.703818115535	118
1	3270	220564.004907680506	119
1	3272	221032.014713947562	120
1	3274	221186.746281186849	121
1	3276	221207.891194907642	122
1	3278	221287.562238799173	123
1	3280	221333.693454374621	124
1	3282	221377.197456058675	125
1	3284	221508.754645625968	126
1	3286	221669.05543570727	127
1	3288	221798.718413586601	128
1	3290	221811.146699286955	129
1	3292	221828.085120196472	130
1	3294	221949.354644791471	131
1	3296	221957.8118852497	132
1	3302	222027.995967147206	133
1	3304	222141.817837109765	134
1	3306	222220.006450535055	135
1	3308	222325.327293503149	136
1	3310	222337.670591537554	137
1	3312	222365.565572273708	138
1	3314	222376.062633790994	139
1	3316	222545.322734404031	140
1	3318	222775.836945526133	141
1	3320	222885.238131757008	142
1	3322	222895.827497263979	143
1	3324	222960.721545383777	144
1	3326	223177.83589285679	145
1	3328	223250.680573064612	146
1	3330	223331.319468410158	147
1	3332	223352.11608350545	148
1	3334	223356.075611660329	149
1	3336	223468.39458135823	150
1	3342	223632.707528355329	151
1	3344	223705.104265160105	152
1	3346	223858.942318836888	153
1	3348	224180.790405809108	154
1	3350	224238.908636768652	155
1	3352	224243.155763420388	156
1	3354	224254.295127985727	157
1	3356	224352.269216639437	158
1	3358	224608.383984341743	159
1	3360	224634.779561755228	160
1	3362	224918.116214472438	161
1	3364	224920.722998310536	162
1	3366	224951.116169436902	163
1	3372	225338.260311829356	164
1	3374	225470.71272904422	165
1	3376	226238.866935882905	166
1	3378	226319.948860098885	167
1	3384	226662.749234289329	168
1	3386	227167.726058292843	169
1	3388	227406.276927378421	170
1	3390	227461.343735084286	171
1	3392	227633.48751169924	172
1	3398	228043.075051899444	173
1	3400	228068.406510150208	174
1	3402	228306.571612132061	175
1	3404	228528.926268491561	176
1	3406	228583.443767607544	177
1	3408	229009.438413730422	178
1	3414	229619.95248893889	179
1	3416	230322.103843923399	180
1	3418	230389.66158220573	181
1	3420	230555.293109102698	182
1	3422	230655.262074088159	183
1	3424	230754.644317243745	184
1	3426	230772.430350743925	185
1	3428	230878.791291913535	186
1	3430	230883.258191788951	187
1	3432	230932.263714861846	188
1	3434	230955.740443804087	189
1	3440	231336.326445624046	190
1	3442	231376.150657719228	191
1	3444	231541.525491359106	192
1	3446	231670.143585044179	193
1	3448	231864.124150871499	194
1	3450	231947.394805541543	195
1	3452	232024.96818996711	196
1	3454	232072.325305806058	197
1	3456	232183.843465684602	198
1	3458	232191.063506874377	199
1	3460	232235.261647091502	200
1	3462	232397.711496842741	201
1	3468	232932.429216190445	202
1	3470	233126.960297738056	203
1	3472	233229.989305414869	204
1	3474	233367.185043498656	205
1	3476	233534.843044920174	206
1	3478	233625.312829968683	207
1	3480	233960.668867407256	208
1	3482	233961.924020393895	209
1	3488	234063.86485715881	210
1	3490	234521.023833269475	211
1	3492	235046.591415687952	212
1	3494	235125.752489821496	213
1	3496	235160.762805093678	214
1	3498	235323.964095727979	215
1	3504	235737.985330713861	216
1	3506	235948.475560504217	217
1	3508	235961.754053520665	218
1	3510	236860.68326768456	219
1	3512	236875.838358365541	220
1	3514	236913.490616644436	221
1	3520	237020.106670620824	222
1	3522	237139.435120066254	223
1	3524	237325.097368925902	224
1	3526	237518.726088932319	225
1	3528	237537.609167260587	226
1	3530	237917.10722139197	227
1	3532	238019.662518289089	228
1	3534	238192.37605523236	229
1	3536	238219.445973861089	230
1	3538	238359.824544337654	231
1	3540	238360.89078144944	232
1	3542	238374.656224305695	233
1	3548	238765.197962975646	234
1	3550	238902.717839412194	235
1	3552	239033.306024455882	236
1	3554	239070.669318065806	237
1	3556	239315.519577955755	238
1	3558	239421.528421363653	239
1	3560	239583.872999601082	240
1	3562	239588.749869787	241
1	3564	239901.365927893019	242
1	3566	239939.478688714081	243
1	3568	239966.661905568038	244
1	3574	240245.282076189586	245
1	3576	240274.079054941322	246
1	3578	240300.342838780698	247
1	3580	240403.190666604474	248
1	3582	240439.770692226958	249
1	3584	240658.956938242415	250
1	3586	240765.648355948066	251
1	3588	240810.347279022674	252
1	3590	241096.514862359553	253
1	3592	241301.581455818391	254
1	3598	241660.038208171307	255
1	3600	241692.403218776754	256
1	3602	241746.421584842137	257
1	3604	241779.977735639571	258
1	3606	242424.467018456248	259
1	3608	242487.19654176321	260
1	3610	242607.018087624783	261
1	3612	242840.850442845059	262
1	3614	242889.951165194623	263
1	3620	243387.517648433428	264
1	3622	243529.71205365467	265
1	3624	243915.310210025968	266
1	3626	244056.999481609835	267
1	3628	244241.372985154449	268
1	3630	244268.629639329676	269
1	3632	244274.207884547825	270
1	3634	244300.005021408486	271
1	3636	244321.050964501554	272
1	3638	244339.915316680066	273
1	3644	244528.402660522462	274
1	3646	245119.822128504156	275
1	3648	245158.928942536755	276
1	3650	245533.491067136514	277
1	3652	245738.399124854575	278
1	3658	246007.831156097513	279
1	3660	246062.439230405979	280
1	3662	246345.163841548623	281
1	3664	246450.477477863183	282
1	3666	246496.348035249578	283
1	3668	246784.902274272405	284
1	3670	247157.518360814694	285
1	3672	247268.356236161542	286
1	3674	247294.051884455871	287
1	3676	247387.030086920174	288
1	3678	247429.301370690141	289
1	3680	247497.306921221562	290
1	3686	247773.576023910208	291
1	3688	247791.322180250455	292
1	3690	247811.065324428149	293
1	3692	248054.669302846615	294
1	3694	248087.153502648365	295
1	3696	248377.526944838838	296
1	3698	248499.443069044543	297
1	3700	248586.698505306812	298
1	3702	248771.713203129014	299
1	3704	248804.204194447976	300
1	3706	248914.988355020963	301
1	3708	248978.243480352011	302
1	3714	249108.264456154259	303
1	3716	249188.260943240442	304
1	3718	249227.043633439475	305
1	3720	249281.177939947342	306
1	3722	249349.316007154642	307
1	3724	249543.917446870089	308
1	3726	249583.652668540832	309
1	3728	249666.941322335871	310
1	3730	249799.87763404445	311
1	3732	249799.950150730933	312
1	3734	249831.220068016493	313
1	3736	249927.93505977627	314
1	3738	250169.831696078234	315
1	3740	250232.719574972032	316
1	3742	250403.535160872576	317
1	3744	250478.855716497828	318
1	3750	250585.943198397805	319
1	3752	250714.174037275179	320
1	3754	250765.958592456015	321
1	3756	250994.060131890848	322
1	3758	250994.963856434232	323
1	3760	251059.086886523114	324
1	3762	251285.752580791572	325
1	3764	251430.336252713078	326
1	3766	251439.268626229473	327
1	3768	251683.993292348788	328
1	3770	251723.628641063686	329
1	3772	251871.819629151066	330
1	3778	252060.283343711602	331
1	3780	252302.834272224201	332
1	3782	252335.871589441075	333
1	3784	252633.883280622133	334
1	3786	252722.726924710538	335
1	3788	252817.779982116472	336
1	3790	252953.207756726531	337
1	3792	253067.401203875653	338
1	3794	253112.481916317305	339
1	3796	253113.952425729796	340
1	3798	253259.97445925759	341
1	3800	253456.162409434726	342
1	3806	253591.2610531885	343
1	3808	253985.163800384845	344
1	3810	254043.645191167615	345
1	3812	254047.742449312538	346
1	3814	254059.209969587692	347
1	3816	254173.535658414603	348
1	3818	254376.318332414233	349
1	3820	254827.774775812441	350
1	3822	254986.317097528079	351
1	3828	255025.619960633611	352
1	3830	255171.231089837018	353
1	3832	255270.718423621733	354
1	3834	255323.90729651527	355
1	3836	255354.276738889235	356
1	3838	255384.602193683933	357
1	3840	255502.336720560172	358
1	3842	255611.542920835832	359
1	3844	255736.260644938751	360
1	3846	256169.476189192323	361
1	3848	256318.469219503897	362
1	3850	256340.139905234622	363
1	3856	256558.627275641173	364
1	3858	256583.420243268789	365
1	3860	256627.385642876287	366
1	3862	257175.820022821797	367
1	3864	257281.351107900845	368
1	3866	257335.706831079771	369
1	3868	257456.633680117985	370
1	3870	257508.993197260273	371
1	3872	257542.778658710753	372
1	3874	257666.804382267827	373
1	3876	257765.652817753543	374
1	3878	257904.373596881611	375
1	3884	258265.81023967082	376
1	3886	258492.617961637392	377
1	3888	258554.024152786605	378
1	3890	258566.007364985708	379
1	3892	259157.093267805264	380
1	3894	259285.155468847961	381
1	3896	259285.690954066246	382
1	3902	259613.018905553352	383
1	3904	259901.464547844988	384
1	3906	260125.438159399076	385
1	3908	260248.952432076265	386
1	3910	260373.040420598629	387
1	3912	260511.533781357428	388
1	3918	261045.201004568738	389
1	3920	261631.750170933688	390
1	3922	261842.762429580592	391
1	3924	262476.995992854428	392
1	3930	262607.951493603711	393
1	3932	263003.095705362529	394
1	3934	263181.357737250166	395
1	3936	263311.35988386257	396
1	3938	263474.679696072897	397
1	3940	263774.770179325685	398
1	3942	263849.039614213162	399
1	3944	263862.031742990243	400
1	3950	264037.177706555917	401
1	3952	264053.712490489618	402
1	3954	264375.941474881305	403
1	3956	264451.533798303817	404
1	3958	264740.124439475526	405
1	3960	264760.996739816121	406
1	3962	264789.405252173707	407
1	3964	265024.268409685623	408
1	3966	265029.138498290907	409
1	3968	265070.415451118387	410
1	3970	265173.420739294398	411
1	3972	265225.753265775262	412
1	3974	265324.380982747806	413
1	3976	265328.748334596393	414
1	3978	265420.821962848423	415
1	3980	265486.377158668867	416
1	3986	265545.257079112297	417
1	3988	265744.328617766727	418
1	3990	266168.778727245075	419
1	3992	266516.422452952768	420
1	3994	266602.085305206386	421
1	3996	266607.204182111463	422
1	3998	266966.724381715427	423
1	4004	267006.254767946376	424
1	4006	267130.835917790285	425
1	4008	267174.651233195604	426
1	4010	267248.936942197167	427
1	4012	267300.662615002519	428
1	4014	267362.67610497724	429
1	4016	267423.154197711477	430
1	4018	267650.414826180018	431
1	4020	267832.02086343949	432
1	4022	267958.180180297669	433
1	4024	267966.716726788546	434
1	4026	268014.850687262037	435
1	4028	268102.819189750501	436
1	4030	268466.823699276864	437
1	4036	268589.869349539981	438
1	4038	268591.286404887963	439
1	4040	268839.651738443687	440
1	4042	268863.890924231646	441
1	4044	268943.195836689279	442
1	4046	269012.081337419452	443
1	4048	269055.971514799924	444
1	4050	269239.964035167737	445
1	4052	269380.455411707435	446
1	4054	269381.854750335834	447
1	4056	269739.208694209017	448
1	4058	269975.04159964742	449
1	4064	270176.290349080929	450
1	4066	270182.126888926998	451
1	4068	270238.178142729925	452
1	4070	270552.485639586254	453
1	4072	270562.726324632486	454
1	4074	270947.376592510052	455
1	4076	271211.444976617336	456
1	4078	271472.016482148565	457
1	4084	271783.767078628606	458
1	4086	272165.268927942642	459
1	4088	272314.492078716782	460
1	4090	272381.556689613466	461
1	4092	272411.842754021727	462
1	4094	272758.610145972905	463
1	4096	272935.609241393633	464
1	4098	272992.26779142112	465
1	4104	273110.853330301412	466
1	4106	273191.503966175154	467
1	4108	273262.927156983621	468
1	4110	273328.068342361589	469
1	4112	273341.362089211617	470
1	4114	273516.164513331705	471
1	4116	274071.718177678287	472
1	4118	274158.815725970027	473
1	4120	274392.155920031908	474
1	4122	274451.48398359112	475
1	4128	274503.217971047097	476
1	4130	274594.444511199516	477
1	4132	274927.405716288824	478
1	4134	275328.439511497911	479
1	4136	275338.624018910363	480
1	4138	275505.337885864661	481
1	4140	275524.491778523683	482
1	4142	275840.452430147839	483
1	4148	276636.548808202005	484
1	4150	276966.565285343434	485
1	4152	276983.74947409718	486
1	4154	277101.151940543721	487
1	4156	277120.597671711045	488
1	4158	277450.983600042176	489
1	4164	277525.871332746088	490
1	4166	277653.902814841152	491
1	4168	277761.147940108435	492
1	4170	277879.487306376582	493
1	4172	278077.130211100157	494
1	4174	278115.641768402588	495
1	4176	278140.767959585294	496
1	4178	278141.534973568612	497
1	4180	278458.804382037768	498
1	4182	278469.053703774107	499
1	4184	278745.572439984477	500
1	4186	278871.09086897156	501
1	4192	279241.21464760226	502
1	4194	279515.650326306849	503
1	4196	279592.079916246896	504
1	4198	279872.982456895152	505
1	4200	279931.360887334211	506
1	4202	280241.51679314217	507
1	4204	280245.609968746954	508
1	4210	280525.802530559661	509
1	4212	280647.37430084325	510
1	4214	280841.076400009946	511
1	4216	280857.85244588737	512
1	4218	281108.563042172462	513
1	4220	281180.843556159427	514
1	4222	281651.694771781312	515
1	4224	281663.313621011008	516
1	4226	281816.817146749527	517
1	4232	282012.411476845784	518
1	4234	282524.885372362408	519
1	4236	282562.057943893263	520
1	4238	282579.927831760863	521
1	4240	282720.338848910281	522
1	4242	282914.024785845524	523
1	4244	283045.975800275331	524
1	4246	283329.338809784714	525
1	4248	283460.456895602027	526
1	4250	283489.147172395709	527
1	4256	283609.897921349858	528
1	4258	283633.959338665369	529
1	4260	283769.279976295574	530
1	4262	283897.036139942417	531
1	4264	284025.344033324417	532
1	4266	284189.191094202581	533
1	4268	284336.144738249636	534
1	4270	284496.339730118673	535
1	4272	284595.015957271867	536
1	4274	284843.761850100056	537
1	4276	284995.95725984779	538
1	4282	285214.8975082425	539
1	4284	285299.196472222399	540
1	4286	285314.126731531245	541
1	4288	285575.595884413849	542
1	4290	285680.563335881845	543
1	4292	285691.328096563009	544
1	4294	285833.293297439279	545
1	4296	285909.832419037368	546
1	4298	286043.975574016681	547
1	4300	286158.718487239868	548
1	4302	286363.491515088034	549
1	4304	286423.638530054403	550
1	4310	286551.940126049669	551
1	4312	286715.796639364615	552
1	4314	286884.543803817228	553
1	4316	287198.242130289736	554
1	4318	287291.616451516974	555
1	4320	287528.654722822422	556
1	4322	287653.054755016981	557
1	4324	287660.134087892722	558
1	4326	287952.552493869654	559
1	4332	288108.989003147103	560
1	4334	288388.417715151447	561
1	4336	288389.36339876723	562
1	4338	288411.084071713932	563
1	4340	288905.090448157875	564
1	4342	289096.007169804857	565
1	4344	289204.64553309055	566
1	4346	289314.196567704999	567
1	4348	289340.158529450262	568
1	4350	289349.418180922549	569
1	4356	289558.826572006813	570
1	4358	289977.716843700978	571
1	4360	290038.403510553752	572
1	4362	290117.713069033083	573
1	4364	290293.235414411346	574
1	4366	290597.294311915459	575
1	4372	291312.745570692183	576
1	4374	291512.994200096618	577
1	4376	291518.54607995038	578
1	4378	291735.703262685255	579
1	4380	292057.828350733265	580
1	4382	292218.509763073397	581
1	4384	292289.209785015112	582
1	4386	292292.053378293069	583
1	4392	292681.502177594175	584
1	4394	292699.899812971399	585
1	4396	292859.063376306916	586
1	4398	292872.495876039998	587
1	4400	292949.469401928271	588
1	4402	292956.62275489802	589
1	4404	293284.931410175422	590
1	4406	293356.199383420938	591
1	4408	293543.930111660419	592
1	4410	293882.037764939566	593
1	4412	293907.77062714904	594
1	4414	293988.784153988657	595
1	4416	293999.648715702465	596
1	4422	294251.496651759243	597
1	4424	294720.859675122263	598
1	4426	295179.49720139635	599
1	4428	295223.334616824096	600
1	4430	295270.122549678318	601
1	4432	295359.740967019135	602
1	4434	295411.082364062806	603
1	4440	295513.581857788616	604
1	4442	295618.765573438843	605
1	4444	295727.668555508354	606
1	4446	295796.403354534994	607
1	4448	295966.321056162019	608
[...]
5	28256	6750000	5725524.6596006
5	28260	6751500	5726771.4500243
5	28264	6753000	5728026.00349
5	28268	6754500	5728970.0502874
5	28272	6756000	5730169.0777852
5	28276	6757500	5731425.0238304
5	28280	6759000	5732822.3603771
5	28284	6760500	5733968.8135461
5	28288	6762000	5735158.0526437
5	28292	6763500	5735920.1929648
5	28296	6765000	5737243.3423127
5	28300	6766500	5738305.425132
5	28304	6768000	5738844.2660551
5	28308	6769500	5738225.7742285
5	28312	6771000	5739439.6191448
5	28316	6772500	5740827.8761871
5	28320	6774000	5742223.7364856
5	28324	6775500	5743514.7924592
5	28328	6777000	5743698.1811888
5	28332	6778500	5744461.0473566
5	28336	6780000	5745242.9211624
5	28340	6781500	5746011.800979
5	28344	6783000	5747318.608166
5	28348	6784500	5748235.2876327
5	28352	6786000	5749638.7011167
5	28356	6787500	5750768.8488187
5	28360	6789000	5752194.8182665
5	28364	6790500	5751772.5057995
5	28368	6792000	5752916.1587814
5	28372	6793500	5752408.295021
5	28376	6795000	5752530.0654995
5	28380	6796500	5753293.5921941
5	28384	6798000	5754725.1194461
5	28388	6799500	5756098.6936585
5	28392	6801000	5757556.5241535
5	28396	6802500	5758863.9644239
5	28400	6804000	5760189.014901
5	28404	6805500	5761555.7023474
5	28408	6807000	5762671.1390543
5	28412	6808500	5763985.8109136
5	28416	6810000	5765294.6439877
5	28420	6811500	5765955.2896816
5	28424	6813000	5767440.0778546
5	28428	6814500	5768870.4979778
5	28432	6816000	5769962.3240778
5	28436	6817500	5771437.7410532
5	28440	6819000	5772229.938427
5	28444	6820500	5773258.1219696
5	28448	6822000	5774250.8184122
5	28452	6823500	5775680.0659067
5	28456	6825000	5776634.3683929
5	28460	6826500	5778114.8301893
5	28464	6828000	5779240.5370086
5	28468	6829500	5779838.1458691
5	28472	6831000	5781316.0551908
5	28476	6832500	5782732.210423
5	28480	6834000	5783941.3012649
5	28484	6835500	5785388.4661904
5	28488	6837000	5786602.5677674
5	28492	6838500	5786740.3082504
5	28496	6840000	5787921.7076477
5	28500	6841500	5788542.4335239
5	28504	6843000	5789790.2183543
5	28508	6844500	5791137.396323
5	28512	6846000	5791737.5459195
5	28516	6847500	5792704.610268
5	28520	6849000	5792166.7904698
5	28524	6850500	5792933.7605011
5	28528	6852000	5794302.1568887
5	28532	6853500	5795761.8155288
5	28536	6855000	5797195.939605
5	28540	6856500	5797511.1840115
5	28544	6858000	5798707.5368566
5	28548	6859500	5799587.9248789
5	28552	6861000	5799671.2580061
5	28556	6862500	5800578.1179384
5	28560	6864000	5800188.8842429
5	28564	6865500	5800778.9041342
5	28568	6867000	5800537.3221457
5	28572	6868500	5800400.4312757
5	28576	6870000	5801080.2662418
5	28580	6871500	5802304.5662813
5	28584	6873000	5803096.4364158
5	28588	6874500	5804475.6415542
5	28592	6876000	5805463.4323828
5	28596	6877500	5806888.3190848
5	28600	6879000	5807854.3510845
5	28604	6880500	5808029.2230344
5	28608	6882000	5809520.4281348
5	28612	6883500	5810611.9847776
5	28616	6885000	5811676.4116062
5	28620	6886500	5812571.8793696
5	28624	6888000	5813276.2592564
5	28628	6889500	5814144.9450806
5	28632	6891000	5815363.0196288
5	28636	6892500	5815808.4098095
5	28640	6894000	5817285.6971662
5	28644	6895500	5818474.7489257
5	28648	6897000	5819250.9255201
5	28652	6898500	5820636.9827223
5	28656	6900000	5822114.9003172
5	28660	6901500	5822868.5306018
5	28664	6903000	5823435.8699936
5	28668	6904500	5824697.4765735
5	28672	6906000	5825377.7867871
5	28676	6907500	5826345.6927411
5	28680	6909000	5827650.2701528
5	28684	6910500	5828880.9637905
5	28688	6912000	5829007.1606937
5	28692	6913500	5830190.5004804
5	28696	6915000	5831422.8219694
5	28700	6916500	5832576.5688337
5	28704	6918000	5833734.977605
5	28708	6919500	5835004.7705569
5	28712	6921000	5835443.0650852
5	28716	6922500	5836251.6027975
5	28720	6924000	5837663.8311223
5	28724	6925500	5838955.7452825
5	28728	6927000	5840158.8457922
5	28732	6928500	5840629.7675845
5	28736	6930000	5840664.0261453
5	28740	6931500	5842143.0768086
5	28744	6933000	5843001.319163
5	28748	6934500	5843386.4507593
5	28752	6936000	5844753.5051674
5	28756	6937500	5845193.150532
5	28760	6939000	5846130.0044925
5	28764	6940500	5847604.1168191
5	28768	6942000	5848494.4583726
5	28772	6943500	5849806.9960611
5	28776	6945000	5851164.3082764
5	28780	6946500	5852585.3289763
5	28784	6948000	5853997.5647551
5	28788	6949500	5855407.5375
5	28792	6951000	5856830.489167
5	28796	6952500	5858200.2690999
5	28800	6954000	5857514.8952995
5	28804	6955500	5858079.1975728
5	28808	6957000	5859389.7233857
5	28812	6958500	5860733.6366151
5	28816	6960000	5861961.3287592
5	28820	6961500	5863181.0119872
5	28824	6963000	5863255.7861199
5	28828	6964500	5863876.4864352
5	28832	6966000	5864391.5324776
5	28836	6967500	5865319.9918067
5	28840	6969000	5866774.2361573
5	28844	6970500	5867605.3972386
5	28848	6972000	5868907.3040329
5	28852	6973500	5870072.5818895
5	28856	6975000	5871020.5120281
5	28860	6976500	5872277.1292904
5	28864	6978000	5873310.1459204
5	28868	6979500	5874676.3568347
5	28872	6981000	5875986.8232358
5	28876	6982500	5877423.7037149
5	28880	6984000	5876002.7850535
5	28884	6985500	5876829.505891
5	28888	6987000	5877813.26939
5	28892	6988500	5879069.1711423
5	28896	6990000	5880529.7100604
5	28900	6991500	5881478.1993965
5	28904	6993000	5882974.6090781
5	28908	6994500	5884233.1048813
5	28912	6996000	5885389.4906688
5	28916	6997500	5886523.8813574
5	28920	6999000	5887877.1571993
5	28924	7000500	5888978.704303
5	28928	7002000	5889809.9226821
5	28932	7003500	5889989.4845
5	28936	7005000	5891311.3743582
5	28940	7006500	5892680.4181462
5	28944	7008000	5894177.3222506
5	28948	7009500	5895216.5527985
5	28952	7011000	5896501.1330387
5	28956	7012500	5897419.8416718
5	28960	7014000	5898849.3049346
5	28964	7015500	5899666.5432793
5	28968	7017000	5901035.1531947
5	28972	7018500	5902361.325242
5	28976	7020000	5903369.8643982
5	28980	7021500	5904602.2849209
5	28984	7023000	5905243.0144382
5	28988	7024500	5906263.9899715
5	28992	7026000	5907009.3050191
5	28996	7027500	5906461.3076984
5	29000	7029000	5906454.6413015
5	29004	7030500	5907511.7132378
5	29008	7032000	5908864.2564288
5	29012	7033500	5909890.7006402
5	29016	7035000	5911242.1815322
5	29020	7036500	5912405.3125688
5	29024	7038000	5913359.5048605
5	29028	7039500	5914560.5665637
5	29032	7041000	5915197.8946638
5	29036	7042500	5916310.1560066
5	29040	7044000	5917525.5174682
5	29044	7045500	5917555.8617134
5	29048	7047000	5917829.0208053
5	29052	7048500	5918906.4968963
5	29056	7050000	5920270.9349869
5	29060	7051500	5921542.4620684
5	29064	7053000	5922525.1947167
5	29068	7054500	5923834.5413392
5	29072	7056000	5923989.6436987
5	29076	7057500	5925284.5585332
5	29080	7059000	5925683.5537586
5	29084	7060500	5927123.8750569
5	29088	7062000	5928540.3571291
5	29092	7063500	5929181.9277212
5	29096	7065000	5930505.7137
5	29100	7066500	5930984.2561026
5	29104	7068000	5932417.4160727
5	29108	7069500	5932746.5007365
5	29112	7071000	5932893.9084868
5	29116	7072500	5931630.8019058
5	29120	7074000	5932289.1037398
5	29124	7075500	5933200.9574315
5	29128	7077000	5934610.5914906
5	29132	7078500	5935566.8331045
5	29136	7080000	5934662.3818017
5	29140	7081500	5935935.4657058
5	29144	7083000	5937334.8060661
5	29148	7084500	5938553.1052814
5	29152	7086000	5939082.2293694
5	29156	7087500	5940091.1826064
5	29160	7089000	5941590.9115957
5	29164	7090500	5942467.7384225
5	29168	7092000	5943446.5368469
5	29172	7093500	5944536.3943781
5	29176	7095000	5945807.1112579
5	29180	7096500	5946199.1175985
5	29184	7098000	5947177.2360178
5	29188	7099500	5948517.4612982
5	29192	7101000	5949337.3530564
5	29196	7102500	5950021.2442466
5	29200	7104000	5951368.4267551
5	29204	7105500	5952676.113593
5	29208	7107000	5953664.5262445
5	29212	7108500	5954687.4230419
5	29216	7110000	5955910.7534857
5	29220	7111500	5956533.8255329
5	29224	7113000	5957980.2420191
5	29228	7114500	5959352.9125198
5	29232	7116000	5960549.8044585
5	29236	7117500	5962022.7415547
5	29240	7119000	5963152.8500269
5	29244	7120500	5963515.4266144
5	29248	7122000	5964262.3069244
5	29252	7123500	5964019.7679608
5	29256	7125000	5965514.3385795
5	29260	7126500	5965361.186615
5	29264	7128000	5966514.6193565
5	29268	7129500	5967456.677823
5	29272	7131000	5967059.8196246
5	29276	7132500	5966533.1113617
5	29280	7134000	5967268.0093785
5	29284	7135500	5968335.021197
5	29288	7137000	5969657.523619
5	29292	7138500	5971037.1522851
5	29296	7140000	5972310.8077125
5	29300	7141500	5972623.3627134
5	29304	7143000	5973725.6280339
5	29308	7144500	5974340.6286518
5	29312	7146000	5975319.2974239
5	29316	7147500	5975056.5232599
5	29320	7149000	5976316.5812603
5	29324	7150500	5977753.234175
5	29328	7152000	5978866.6302136
5	29332	7153500	5979600.2555674
5	29336	7155000	5980334.6401357
5	29340	7156500	5980867.230294
5	29344	7158000	5980941.0646163
5	29348	7159500	5982189.8274863
5	29352	7161000	5983570.1903017
5	29356	7162500	5984431.7580631
5	29360	7164000	5985300.1546873
5	29364	7165500	5986374.2709962
5	29368	7167000	5986335.8914839
5	29372	7168500	5987698.8103491
5	29376	7170000	5987728.1726988
5	29380	7171500	5988469.6551076
5	29384	7173000	5989440.3042736
5	29388	7174500	5990868.3845283
5	29392	7176000	5992146.3702111
5	29396	7177500	5993253.4206371
5	29400	7179000	5994650.5438792
5	29404	7180500	5996124.4402456
5	29408	7182000	5997593.2200194
5	29412	7183500	5998043.2619903
5	29416	7185000	5998710.6209653
5	29420	7186500	6000088.3559726
5	29424	7188000	6000983.2415251
5	29428	7189500	6002334.9535601
5	29432	7191000	6003749.40191
5	29436	7192500	6004937.0544083
5	29440	7194000	6006050.0632004
5	29444	7195500	6007534.3037856
5	29448	7197000	6009009.3928513
5	29452	7198500	6009406.7771802
5	29456	7200000	6009568.5257369
5	29460	7201500	6010867.5889467
5	29464	7203000	6010734.4758411
5	29468	7204500	6011413.6466133
5	29472	7206000	6012778.2552693
5	29476	7207500	6013495.646013
5	29480	7209000	6014536.7317483
5	29484	7210500	6015446.9515826
5	29488	7212000	6016146.6124583
5	29492	7213500	6017538.632918
5	29496	7215000	6018855.7314142
5	29500	7216500	6020217.4523324
5	29504	7218000	6021705.0292033
5	29508	7219500	6023005.8768297
5	29512	7221000	6024240.4695338
5	29516	7222500	6024899.2718838
5	29520	7224000	6026017.9332723
5	29524	7225500	6026924.1329631
5	29528	7227000	6028271.1646039
5	29532	7228500	6029399.9860704
5	29536	7230000	6029253.8192224
5	29540	7231500	6030353.1490615
5	29544	7233000	6031334.4439774
5	29548	7234500	6032524.8375879
5	29552	7236000	6033771.2742891
5	29556	7237500	6035219.6018025
5	29560	7239000	6036577.5018383
5	29564	7240500	6038071.1118656
5	29568	7242000	6039428.661565
5	29572	7243500	6040079.155747
5	29576	7245000	6041323.9283292
5	29580	7246500	6041796.5965347
5	29584	7248000	6042829.8593549
5	29588	7249500	6044199.1280605
5	29592	7251000	6045036.9310093
5	29596	7252500	6046459.9387513
5	29600	7254000	6047220.9233874
5	29604	7255500	6048349.886557
5	29608	7257000	6049822.6447948
5	29612	7258500	6050641.1570695
5	29616	7260000	6051472.8696886
5	29620	7261500	6052856.3717837
5	29624	7263000	6054154.7191801
5	29628	7264500	6055276.100064
5	29632	7266000	6055170.7969483
5	29636	7267500	6056203.9021032
5	29640	7269000	6057382.8130305
5	29644	7270500	6057439.831203
5	29648	7272000	6058692.2606186
5	29652	7273500	6060169.064572
5	29656	7275000	6060607.7817208
5	29660	7276500	6061439.3439747
5	29664	7278000	6062869.6927311
5	29668	7279500	6063851.3558234
5	29672	7281000	6065163.7200119
5	29676	7282500	6066507.5030472
5	29680	7284000	6067926.6248024
5	29684	7285500	6068325.9583533
5	29688	7287000	6068968.8965537
5	29692	7288500	6070382.1338855
5	29696	7290000	6071802.1343857
5	29700	7291500	6073241.2923712
5	29704	7293000	6074708.9285623
5	29708	7294500	6075577.4056362
5	29712	7296000	6076920.7195572
5	29716	7297500	6077499.3089781
5	29720	7299000	6077753.4038773
5	29724	7300500	6078702.7236965
5	29728	7302000	6078477.8212882
5	29732	7303500	6079624.512373
5	29736	7305000	6080495.9225668
5	29740	7306500	6081984.5669798
5	29744	7308000	6083185.7396889
5	29748	7309500	6084458.8047482
5	29752	7311000	6084453.4618122
5	29756	7312500	6085505.7681613
5	29760	7314000	6086088.9623705
5	29764	7315500	6086801.1885462
5	29768	7317000	6088159.135855
5	29772	7318500	6088790.4181202
5	29776	7320000	6089989.5278543
5	29780	7321500	6090799.6405437
5	29784	7323000	6091784.7673014
5	29788	7324500	6093247.9103423
5	29792	7326000	6093123.0400128
5	29796	7327500	6094397.523852
5	29800	7329000	6095716.8952442
5	29804	7330500	6097124.6567039
5	29808	7332000	6098372.6043729
5	29812	7333500	6099871.8769732
5	29816	7335000	6101135.8402904
5	29820	7336500	6102217.4545082
5	29824	7338000	6103379.4900992
5	29828	7339500	6104818.3176331
5	29832	7341000	6106295.8912259
5	29836	7342500	6106885.9042332
5	29840	7344000	6107899.5764889
5	29844	7345500	6108376.3897652
5	29848	7347000	6109731.6146984
5	29852	7348500	6110944.8340975
5	29856	7350000	6111360.5102526
5	29860	7351500	6112125.8889116
5	29864	7353000	6112246.0441658
5	29868	7354500	6113424.5260824
5	29872	7356000	6114516.1848261
5	29876	7357500	6116011.445196
5	29880	7359000	6116489.2262314
5	29884	7360500	6117056.8505986
5	29888	7362000	6117765.9264058
5	29892	7363500	6118542.7405982
5	29896	7365000	6119229.8651352
5	29900	7366500	6120545.9233319
5	29904	7368000	6121860.9818624
5	29908	7369500	6123298.5116159
5	29912	7371000	6124294.0896906
5	29916	7372500	6125450.1976923
5	29920	7374000	6126857.8726061
5	29924	7375500	6128181.6867036
5	29928	7377000	6128055.5110522
5	29932	7378500	6127469.9214245
5	29936	7380000	6126705.6389499
5	29940	7381500	6127866.4329827
5	29944	7383000	6129313.6288666
5	29948	7384500	6130695.3493859
5	29952	7386000	6132012.1495561
5	29956	7387500	6132974.5451155
5	29960	7389000	6134185.4269525
5	29964	7390500	6135071.4826197
5	29968	7392000	6136115.5995626
5	29972	7393500	6137397.0744111
5	29976	7395000	6138861.5990673
5	29980	7396500	6140019.7134384
5	29984	7398000	6141290.0149201
5	29988	7399500	6142775.9410637
5	29992	7401000	6144033.7218451
5	29996	7402500	6145415.693915
5	30000	7404000	6146815.1249612
5	30004	7405500	6148266.9658224
5	30008	7407000	6149763.5323007
5	30012	7408500	6150830.8627541
5	30016	7410000	6151065.8213119
5	30020	7411500	6151526.9089935
5	30024	7413000	6152616.9956583
5	30028	7414500	6153825.3846597
5	30032	7416000	6155016.9020777
5	30036	7417500	6156150.2781576
5	30040	7419000	6156315.7434302
5	30044	7420500	6157647.2015553
5	30048	7422000	6158797.9522716
5	30052	7423500	6158887.7420304
5	30056	7425000	6160133.5710593
5	30060	7426500	6161448.6101918
5	30064	7428000	6162631.4508924
5	30068	7429500	6163601.3659868
5	30072	7431000	6164991.8730128
5	30076	7432500	6165991.461937
5	30080	7434000	6167490.7165446
5	30084	7435500	6168603.7611595
5	30088	7437000	6168979.6093482
5	30092	7438500	6169279.4866047
5	30096	7440000	6170579.2622005
5	30100	7441500	6171750.6788386
5	30104	7443000	6173125.485186
5	30108	7444500	6174537.2982309
5	30112	7446000	6175721.6987846
5	30116	7447500	6176590.1535715
5	30120	7449000	6178017.8881106
5	30124	7450500	6179044.2186276
5	30128	7452000	6180500.0114275
5	30132	7453500	6181935.5530575
5	30136	7455000	6181735.1800753
5	30140	7456500	6183147.8016564
5	30144	7458000	6184418.0641065
5	30148	7459500	6185506.3955033
5	30152	7461000	6186755.3538268
5	30156	7462500	6187689.7123931
5	30160	7464000	6187910.0422082
5	30164	7465500	6188323.6091685
5	30168	7467000	6189089.0799062
5	30172	7468500	6189541.2747837
5	30176	7470000	6191029.8467308
5	30180	7471500	6191906.1789146
5	30184	7473000	6192777.8636845
5	30188	7474500	6192796.073382
5	30192	7476000	6193912.6845154
5	30196	7477500	6195407.3646747
5	30200	7479000	6196443.6888963
5	30204	7480500	6197897.1577188
5	30208	7482000	6198803.2461742
5	30212	7483500	6199702.70223
5	30216	7485000	6201123.4333721
5	30220	7486500	6201786.9509266
5	30224	7488000	6202646.5131091
5	30228	7489500	6203853.2467921
5	30232	7491000	6205249.5480713
5	30236	7492500	6206149.2024879
5	30240	7494000	6207358.0251587
5	30244	7495500	6208631.9197535
5	30248	7497000	6208806.4665128
5	30252	7498500	6209950.4072669
5	30256	7500000	6211199.2558404
5	30260	7501500	6212370.5091025
5	30264	7503000	6213777.3814444
5	30268	7504500	6214849.5639407
5	30272	7506000	6216095.7507144
5	30276	7507500	6217505.9386627
5	30280	7509000	6218576.0853041
5	30284	7510500	6219625.8035489
5	30288	7512000	6220343.956627
5	30292	7513500	6221826.9688124
5	30296	7515000	6222966.7561355
5	30300	7516500	6222858.6386389
5	30304	7518000	6222885.0637066
5	30308	7519500	6224359.7580869
5	30312	7521000	6225354.7658908
5	30316	7522500	6226767.9538212
5	30320	7524000	6227585.1261281
5	30324	7525500	6228948.9827941
5	30328	7527000	6229722.4004854
5	30332	7528500	6231174.718317
5	30336	7530000	6232275.9882063
5	30340	7531500	6233490.2134074
5	30344	7533000	6234767.9746443
5	30348	7534500	6235820.2533387
5	30352	7536000	6236833.3150115
5	30356	7537500	6238229.3910442
5	30360	7539000	6239649.1591831
5	30364	7540500	6240953.2228519
5	30368	7542000	6242246.150836
5	30372	7543500	6243462.662735
5	30376	7545000	6244596.1739239
5	30380	7546500	6245435.9616994
5	30384	7548000	6246339.3178831
5	30388	7549500	6246431.5406178
5	30392	7551000	6247513.1605908
5	30396	7552500	6248976.5047765
5	30400	7554000	6250473.1698728
5	30404	7555500	6251780.5929381
5	30408	7557000	6252995.4947365
5	30412	7558500	6254387.0153093
5	30416	7560000	6255470.6505648
5	30420	7561500	6255549.0215623
5	30424	7563000	6256721.3029043
5	30428	7564500	6257914.9501803
5	30432	7566000	6258336.1307101
5	30436	7567500	6259691.4339906
5	30440	7569000	6261140.3094486
5	30444	7570500	6261150.7482764
5	30448	7572000	6262618.6160532
5	30452	7573500	6263640.7013695
5	30456	7575000	6265013.2266282
5	30460	7576500	6266350.1119171
5	30464	7578000	6267337.2042897
5	30468	7579500	6268381.2418464
5	30472	7581000	6269835.0385968
5	30476	7582500	6271256.9371156
5	30480	7584000	6272729.6015229
5	30484	7585500	6273629.7649732
5	30488	7587000	6274316.7835763
5	30492	7588500	6275636.83893
5	30496	7590000	6276319.6669752
5	30500	7591500	6277415.5857755
5	30504	7593000	6278842.9436234
5	30508	7594500	6280113.8788555
5	30512	7596000	6281436.4735524
5	30516	7597500	6282735.4037603
5	30520	7599000	6283944.3037245
5	30524	7600500	6285011.7971941
5	30528	7602000	6286122.5923204
5	30532	7603500	6287292.5002533
5	30536	7605000	6288553.5645196
5	30540	7606500	6289967.7583061
5	30544	7608000	6291069.3444156
5	30548	7609500	6292026.8690191
5	30552	7611000	6293200.6587319
5	30556	7612500	6293825.2678197
5	30560	7614000	6294575.160709
5	30564	7615500	6295433.9273509
5	30568	7617000	6296038.2157479
5	30572	7618500	6297454.0645903
5	30576	7620000	6298791.9930723
5	30580	7621500	6298901.8830354
5	30584	7623000	6300061.6726731
5	30588	7624500	6299413.6599319
5	30592	7626000	6299469.4066154
5	30596	7627500	6300772.7501497
5	30600	7629000	6301781.1995602
5	30604	7630500	6302924.542274
5	30608	7632000	6304142.2452371
5	30612	7633500	6304992.1706672
5	30616	7635000	6305999.7977307
5	30620	7636500	6307018.4551157
5	30624	7638000	6307576.9012923
5	30628	7639500	6308829.5321473
5	30632	7641000	6310172.4739668
5	30636	7642500	6310575.4518214
5	30640	7644000	6311639.3090882
5	30644	7645500	6312884.1226923
5	30648	7647000	6314228.6263375
5	30652	7648500	6315285.3881597
5	30656	7650000	6316624.6823881
5	30660	7651500	6316968.5123203
5	30664	7653000	6317779.8342611
5	30668	7654500	6319232.139641
5	30672	7656000	6319886.0306653
5	30676	7657500	6321369.7904605
5	30680	7659000	6322323.949587
5	30684	7660500	6323747.1127703
5	30688	7662000	6324840.9786078
5	30692	7663500	6325881.652134
5	30696	7665000	6326479.3241687
5	30700	7666500	6327231.2146231
5	30704	7668000	6328452.6867042
5	30708	7669500	6329259.1693052
5	30712	7671000	6329516.4377898
5	30716	7672500	6329928.253699
5	30720	7674000	6331354.7884899
5	30724	7675500	6332711.5841381
5	30728	7677000	6333613.8660461
5	30732	7678500	6332884.8157548
5	30736	7680000	6334347.151579
5	30740	7681500	6335790.3844418
5	30744	7683000	6335974.7869279
5	30748	7684500	6336331.9541708
5	30752	7686000	6336530.738324
5	30756	7687500	6334889.7906151
5	30759	7689000	6336268.9126585

